12

  C          -3.238889             4.918494             7.898113            0             0.099454    [6[8[1]][1][1][1]]                                          
  O          -4.165077             3.808282             7.721132            0            -0.597823    [8[6[1][1][1]][1]]                                          
  H          -4.247115             3.385438             8.589834            0             0.402573    [1[8[6]]]                                                   
  H          -3.174638             5.307419             8.953087            0             0.031932    [1[6[8][1][1]]]                                             
  H          -2.318098             4.611922             7.595619            0             0.031932    [1[6[8][1][1]]]                                             
  H          -3.522041             5.704634             7.272271            0             0.031932    [1[6[8][1][1]]]                                             
  C          -3.872528             2.001226             10.864595           1             0.099454    [6[8[1]][1][1][1]]                                          
  O          -3.736998             1.696973             9.499086            1            -0.597823    [8[6[1][1][1]][1]]                                          
  H          -3.554987             0.750151             9.587223            1             0.402573    [1[8[6]]]                                                   
  H          -4.390555             1.165372             11.388547           1             0.031932    [1[6[8][1][1]]]                                             
  H          -3.011502             2.207887             11.433390           1             0.031932    [1[6[8][1][1]]]                                             
  H          -4.542137             2.906519             11.106688           1             0.031932    [1[6[8][1][1]]]                                             
