12

  C          -0.021919             8.009453             2.783988            0             0.099454    [6[8[1]][1][1][1]]                                          
  O          -0.528219             7.199774             3.833651            0            -0.597823    [8[6[1][1][1]][1]]                                          
  H           0.125578             6.504699             4.084652            0             0.402573    [1[8[6]]]                                                   
  H           0.915588             8.444604             3.152632            0             0.031932    [1[6[8][1][1]]]                                             
  H           0.145282             7.447361             1.830952            0             0.031932    [1[6[8][1][1]]]                                             
  H          -0.773289             8.872872             2.476492            0             0.031932    [1[6[8][1][1]]]                                             
  C           3.707483             5.872302             5.882262            1             0.099454    [6[8[1]][1][1][1]]                                          
  O           3.188635             5.911158             7.213912            1            -0.597823    [8[6[1][1][1]][1]]                                          
  H           3.919754             5.759517             7.763881            1             0.402573    [1[8[6]]]                                                   
  H           3.428067             6.738403             5.267230            1             0.031932    [1[6[8][1][1]]]                                             
  H           4.814967             5.848514             5.957778            1             0.031932    [1[6[8][1][1]]]                                             
  H           3.330196             4.978479             5.286867            1             0.031932    [1[6[8][1][1]]]                                             
