12

  C          -9.116109             5.828608            -3.149760            0             0.099454    [6[8[1]][1][1][1]]                                          
  O          -8.666366             7.180685            -3.469790            0            -0.597823    [8[6[1][1][1]][1]]                                          
  H          -8.814491             7.394887            -4.363041            0             0.402573    [1[8[6]]]                                                   
  H          -9.459913             5.864401            -2.148955            0             0.031932    [1[6[8][1][1]]]                                             
  H          -9.944737             5.470337            -3.807818            0             0.031932    [1[6[8][1][1]]]                                             
  H          -8.309017             5.140862            -3.188582            0             0.031932    [1[6[8][1][1]]]                                             
  C          -10.794103            7.923745            -0.381378            1             0.099454    [6[8[1]][1][1][1]]                                          
  O          -9.384621             8.224671            -0.537492            1            -0.597823    [8[6[1][1][1]][1]]                                          
  H          -8.927272             7.739375             0.112836            1             0.402573    [1[8[6]]]                                                   
  H          -11.348183            8.222421            -1.285125            1             0.031932    [1[6[8][1][1]]]                                             
  H          -10.884560            6.832683            -0.192969            1             0.031932    [1[6[8][1][1]]]                                             
  H          -11.337824            8.388577             0.464184            1             0.031932    [1[6[8][1][1]]]                                             
