12

  C          -3.092686            -1.451874             10.711364           0             0.099454    [6[8[1]][1][1][1]]                                          
  O          -2.273163            -2.540808             10.545648           0            -0.597823    [8[6[1][1][1]][1]]                                          
  H          -2.684214            -3.268882             11.063944           0             0.402573    [1[8[6]]]                                                   
  H          -4.148534            -1.721086             10.677316           0             0.031932    [1[6[8][1][1]]]                                             
  H          -2.829864            -0.967831             11.633750           0             0.031932    [1[6[8][1][1]]]                                             
  H          -2.944506            -0.806253             9.884226            0             0.031932    [1[6[8][1][1]]]                                             
  C          -2.221058            -3.446689             6.998465            1             0.099454    [6[8[1]][1][1][1]]                                          
  O          -1.873761            -3.179078             5.629325            1            -0.597823    [8[6[1][1][1]][1]]                                          
  H          -1.860094            -2.201635             5.512073            1             0.402573    [1[8[6]]]                                                   
  H          -2.621781            -4.400439             7.017455            1             0.031932    [1[6[8][1][1]]]                                             
  H          -1.377824            -3.586597             7.742426            1             0.031932    [1[6[8][1][1]]]                                             
  H          -3.018817            -2.859799             7.498066            1             0.031932    [1[6[8][1][1]]]                                             
