12

  C           8.993395             7.768408            -1.929499            0             0.099454    [6[8[1]][1][1][1]]                                          
  O           8.277690             6.973573            -2.867001            0            -0.597823    [8[6[1][1][1]][1]]                                          
  H           8.425852             6.002038            -2.621908            0             0.402573    [1[8[6]]]                                                   
  H           8.719667             7.623738            -0.890754            0             0.031932    [1[6[8][1][1]]]                                             
  H           10.017294            7.538047            -2.089698            0             0.031932    [1[6[8][1][1]]]                                             
  H           8.693752             8.789069            -2.138796            0             0.031932    [1[6[8][1][1]]]                                             
  C           4.929849             5.519204            -3.312693            1             0.099454    [6[8[1]][1][1][1]]                                          
  O           4.791169             4.298609            -2.691907            1            -0.597823    [8[6[1][1][1]][1]]                                          
  H           4.377090             4.461801            -1.862990            1             0.402573    [1[8[6]]]                                                   
  H           5.868760             5.594581            -3.957458            1             0.031932    [1[6[8][1][1]]]                                             
  H           4.101892             5.726034            -4.045604            1             0.031932    [1[6[8][1][1]]]                                             
  H           5.026957             6.366105            -2.589375            1             0.031932    [1[6[8][1][1]]]                                             
