12

  C          -6.453457            -0.292748             3.025583            0             0.099454    [6[8[1]][1][1][1]]                                          
  O          -7.118976             0.113840             4.133951            0            -0.597823    [8[6[1][1][1]][1]]                                          
  H          -6.482829             0.713591             4.577241            0             0.402573    [1[8[6]]]                                                   
  H          -7.026724            -1.111261             2.492437            0             0.031932    [1[6[8][1][1]]]                                             
  H          -6.333896             0.490249             2.235554            0             0.031932    [1[6[8][1][1]]]                                             
  H          -5.489757            -0.618275             3.381762            0             0.031932    [1[6[8][1][1]]]                                             
  C          -8.326062             2.645754             3.193357            1             0.099454    [6[8[1]][1][1][1]]                                          
  O          -9.471380             1.834753             3.573380            1            -0.597823    [8[6[1][1][1]][1]]                                          
  H          -9.147680             1.019631             3.952367            1             0.402573    [1[8[6]]]                                                   
  H          -8.261319             2.762300             2.108534            1             0.031932    [1[6[8][1][1]]]                                             
  H          -8.453512             3.660884             3.527145            1             0.031932    [1[6[8][1][1]]]                                             
  H          -7.380208             2.241632             3.505309            1             0.031932    [1[6[8][1][1]]]                                             
