12

  C          -0.158356             9.506197             3.981543            0             0.099454    [6[8[1]][1][1][1]]                                          
  O          -0.410471             8.158518             3.815830            0            -0.597823    [8[6[1][1][1]][1]]                                          
  H           0.393744             7.667537             4.016496            0             0.402573    [1[8[6]]]                                                   
  H           0.655024             9.876577             3.386324            0             0.031932    [1[6[8][1][1]]]                                             
  H          -1.039333             10.052744            3.675761            0             0.031932    [1[6[8][1][1]]]                                             
  H           0.122370             9.895403             4.954957            0             0.031932    [1[6[8][1][1]]]                                             
  C           3.420533             6.297204             5.717172            1             0.099454    [6[8[1]][1][1][1]]                                          
  O           2.552240             6.255611             4.552327            1            -0.597823    [8[6[1][1][1]][1]]                                          
  H           3.144058             6.201157             3.813255            1             0.402573    [1[8[6]]]                                                   
  H           4.220448             5.524893             5.714721            1             0.031932    [1[6[8][1][1]]]                                             
  H           4.002737             7.205981             5.743361            1             0.031932    [1[6[8][1][1]]]                                             
  H           2.827530             6.360837             6.689454            1             0.031932    [1[6[8][1][1]]]                                             
