12

  C          -7.316454             2.519714            -5.714495            0             0.099454    [6[8[1]][1][1][1]]                                          
  O          -8.253568             3.568823            -5.868071            0            -0.597823    [8[6[1][1][1]][1]]                                          
  H          -8.943469             3.628476            -5.171581            0             0.402573    [1[8[6]]]                                                   
  H          -6.661630             2.451363            -6.563210            0             0.031932    [1[6[8][1][1]]]                                             
  H          -6.733230             2.598841            -4.811686            0             0.031932    [1[6[8][1][1]]]                                             
  H          -7.876300             1.578366            -5.571679            0             0.031932    [1[6[8][1][1]]]                                             
  C          -7.470771             5.176291            -8.837146            1             0.099454    [6[8[1]][1][1][1]]                                          
  O          -7.193721             5.724068            -7.566079            1            -0.597823    [8[6[1][1][1]][1]]                                          
  H          -7.082699             4.953122            -7.005484            1             0.402573    [1[8[6]]]                                                   
  H          -8.568869             5.324758            -9.142471            1             0.031932    [1[6[8][1][1]]]                                             
  H          -6.883837             5.736098            -9.607915            1             0.031932    [1[6[8][1][1]]]                                             
  H          -7.154908             4.148273            -8.892151            1             0.031932    [1[6[8][1][1]]]                                             
