12

  C          -1.373571            -3.705527            -1.475902            0             0.099454    [6[8[1]][1][1][1]]                                          
  O          -0.162708            -4.425237            -1.466912            0            -0.597823    [8[6[1][1][1]][1]]                                          
  H           0.089455            -4.407431            -2.392354            0             0.402573    [1[8[6]]]                                                   
  H          -1.579773            -3.360214            -2.541240            0             0.031932    [1[6[8][1][1]]]                                             
  H          -2.206806            -4.307433            -1.158718            0             0.031932    [1[6[8][1][1]]]                                             
  H          -1.376935            -2.795446            -0.873516            0             0.031932    [1[6[8][1][1]]]                                             
  C          -0.225415            -6.095642             1.633426            1             0.099454    [6[8[1]][1][1][1]]                                          
  O           0.536393            -4.945777             1.263949            1            -0.597823    [8[6[1][1][1]][1]]                                          
  H           0.282742            -4.668539             0.398102            1             0.402573    [1[8[6]]]                                                   
  H          -0.303400            -6.885576             0.849981            1             0.031932    [1[6[8][1][1]]]                                             
  H           0.171865            -6.535752             2.542253            1             0.031932    [1[6[8][1][1]]]                                             
  H          -1.226510            -5.752249             1.770612            1             0.031932    [1[6[8][1][1]]]                                             
