12

  C           10.085171            9.090846            -6.497490            0             0.099454    [6[8[1]][1][1][1]]                                          
  O           9.870105             7.743981            -6.738684            0            -0.597823    [8[6[1][1][1]][1]]                                          
  H           9.596428             7.627402            -7.668537            0             0.402573    [1[8[6]]]                                                   
  H           10.240051            9.593562            -7.467117            0             0.031932    [1[6[8][1][1]]]                                             
  H           9.364494             9.634166            -5.908815            0             0.031932    [1[6[8][1][1]]]                                             
  H           11.032180            9.300689            -5.983905            0             0.031932    [1[6[8][1][1]]]                                             
  C           6.543165             8.326145            -10.416435           1             0.099454    [6[8[1]][1][1][1]]                                          
  O           6.659908             7.253888            -9.509501            1            -0.597823    [8[6[1][1][1]][1]]                                          
  H           5.909592             7.446161            -8.983774            1             0.402573    [1[8[6]]]                                                   
  H           6.614220             9.393741            -10.016194           1             0.031932    [1[6[8][1][1]]]                                             
  H           7.383919             8.321079            -11.080022           1             0.031932    [1[6[8][1][1]]]                                             
  H           5.626030             8.221112            -11.046252           1             0.031932    [1[6[8][1][1]]]                                             
