12

  C           8.730308             3.899226             2.149717            0             0.099454    [6[8[1]][1][1][1]]                                          
  O           8.727510             4.515731             3.391171            0            -0.597823    [8[6[1][1][1]][1]]                                          
  H           8.971102             3.845364             4.096785            0             0.402573    [1[8[6]]]                                                   
  H           7.977863             3.093714             1.981061            0             0.031932    [1[6[8][1][1]]]                                             
  H           8.611493             4.563490             1.375801            0             0.031932    [1[6[8][1][1]]]                                             
  H           9.723099             3.443428             1.923112            0             0.031932    [1[6[8][1][1]]]                                             
  C           10.360411            1.351728            -2.768498            1             0.099454    [6[8[1]][1][1][1]]                                          
  O           9.480040             2.425888            -2.943483            1            -0.597823    [8[6[1][1][1]][1]]                                          
  H           8.786266             2.096942            -3.479795            1             0.402573    [1[8[6]]]                                                   
  H           11.317643            1.730612            -2.411997            1             0.031932    [1[6[8][1][1]]]                                             
  H           9.976586             0.482140            -2.219408            1             0.031932    [1[6[8][1][1]]]                                             
  H           10.564958            0.920974            -3.793608            1             0.031932    [1[6[8][1][1]]]                                             
