12

  C           3.287968             3.226782            -8.639468            0             0.099454    [6[8[1]][1][1][1]]                                          
  O           3.947243             4.453909            -8.971919            0            -0.597823    [8[6[1][1][1]][1]]                                          
  H           3.956798             5.002304            -8.197140            0             0.402573    [1[8[6]]]                                                   
  H           2.430109             3.437104            -7.954319            0             0.031932    [1[6[8][1][1]]]                                             
  H           2.974935             2.722716            -9.528785            0             0.031932    [1[6[8][1][1]]]                                             
  H           3.895933             2.592943            -7.977857            0             0.031932    [1[6[8][1][1]]]                                             
  C           6.290606             6.832760            -10.165576           1             0.099454    [6[8[1]][1][1][1]]                                          
  O           4.896429             6.996300            -9.884444            1            -0.597823    [8[6[1][1][1]][1]]                                          
  H           4.574799             6.093500            -9.680608            1             0.402573    [1[8[6]]]                                                   
  H           6.456056             5.793661            -10.580889           1             0.031932    [1[6[8][1][1]]]                                             
  H           6.682673             7.550290            -10.865907           1             0.031932    [1[6[8][1][1]]]                                             
  H           6.927210             6.865684            -9.254179            1             0.031932    [1[6[8][1][1]]]                                             
