12

  C          -5.252055            -9.759697            -0.851387            0             0.099454    [6[8[1]][1][1][1]]                                          
  O          -4.094969            -10.237393           -1.399466            0            -0.597823    [8[6[1][1][1]][1]]                                          
  H          -4.355616            -10.689949           -2.261042            0             0.402573    [1[8[6]]]                                                   
  H          -5.503962            -10.286703            0.104777            0             0.031932    [1[6[8][1][1]]]                                             
  H          -5.292786            -8.615948            -0.766921            0             0.031932    [1[6[8][1][1]]]                                             
  H          -6.157167            -10.123109           -1.483756            0             0.031932    [1[6[8][1][1]]]                                             
  C          -0.747665            -10.120850           -0.854930            1             0.099454    [6[8[1]][1][1][1]]                                          
  O          -1.466564            -9.464401             0.123687            1            -0.597823    [8[6[1][1][1]][1]]                                          
  H          -2.408869            -9.734588             0.068551            1             0.402573    [1[8[6]]]                                                   
  H          -0.953188            -11.205681           -0.925067            1             0.031932    [1[6[8][1][1]]]                                             
  H          -1.040905            -9.909935            -1.885055            1             0.031932    [1[6[8][1][1]]]                                             
  H           0.360955            -10.000571           -0.747927            1             0.031932    [1[6[8][1][1]]]                                             
