12

  C          -1.317540            -4.116525            -0.831856            0             0.099454    [6[8[1]][1][1][1]]                                          
  O          -2.596649            -3.719682            -0.393180            0            -0.597823    [8[6[1][1][1]][1]]                                          
  H          -2.812329            -2.915960            -0.926577            0             0.402573    [1[8[6]]]                                                   
  H          -1.308331            -5.199716            -1.104723            0             0.031932    [1[6[8][1][1]]]                                             
  H          -1.039961            -3.543789            -1.693734            0             0.031932    [1[6[8][1][1]]]                                             
  H          -0.520644            -3.873342            -0.139509            0             0.031932    [1[6[8][1][1]]]                                             
  C          -5.099899            -0.314163             2.273971            1             0.099454    [6[8[1]][1][1][1]]                                          
  O          -4.169031            -1.341223             2.297468            1            -0.597823    [8[6[1][1][1]][1]]                                          
  H          -3.967029            -1.630792             1.383608            1             0.402573    [1[8[6]]]                                                   
  H          -4.650917             0.664407             1.983989            1             0.031932    [1[6[8][1][1]]]                                             
  H          -5.904849            -0.446509             1.523370            1             0.031932    [1[6[8][1][1]]]                                             
  H          -5.640213            -0.184676             3.176502            1             0.031932    [1[6[8][1][1]]]                                             
