12

  C          -2.287004            -7.105774            -7.763036            0             0.099454    [6[8[1]][1][1][1]]                                          
  O          -0.949285            -7.170664            -8.203545            0            -0.597823    [8[6[1][1][1]][1]]                                          
  H          -0.939735            -7.506460            -9.050222            0             0.402573    [1[8[6]]]                                                   
  H          -2.333886            -6.430946            -6.937260            0             0.031932    [1[6[8][1][1]]]                                             
  H          -2.922818            -6.617067            -8.546304            0             0.031932    [1[6[8][1][1]]]                                             
  H          -2.776979            -8.069040            -7.408969            0             0.031932    [1[6[8][1][1]]]                                             
  C          -4.979729            -10.194261           -4.440011            1             0.099454    [6[8[1]][1][1][1]]                                          
  O          -5.876140            -9.334104            -3.722812            1            -0.597823    [8[6[1][1][1]][1]]                                          
  H          -6.502014            -9.896957            -3.232383            1             0.402573    [1[8[6]]]                                                   
  H          -5.545413            -10.929987           -4.978695            1             0.031932    [1[6[8][1][1]]]                                             
  H          -4.345334            -9.696676            -5.161990            1             0.031932    [1[6[8][1][1]]]                                             
  H          -4.367641            -10.707767           -3.673316            1             0.031932    [1[6[8][1][1]]]                                             
