12

  C           2.779950            -1.881484             11.391923           0             0.099454    [6[8[1]][1][1][1]]                                          
  O           2.055314            -1.730642             10.206373           0            -0.597823    [8[6[1][1][1]][1]]                                          
  H           1.464280            -2.459480             10.116337           0             0.402573    [1[8[6]]]                                                   
  H           2.367687            -1.310443             12.209301           0             0.031932    [1[6[8][1][1]]]                                             
  H           2.822977            -2.920419             11.708778           0             0.031932    [1[6[8][1][1]]]                                             
  H           3.771705            -1.426451             11.223731           0             0.031932    [1[6[8][1][1]]]                                             
  C           0.394108            -5.205522             10.558296           1             0.099454    [6[8[1]][1][1][1]]                                          
  O           0.573753            -4.235811             9.557318            1            -0.597823    [8[6[1][1][1]][1]]                                          
  H          -0.243373            -4.142558             9.060410            1             0.402573    [1[8[6]]]                                                   
  H          -0.667313            -5.047230             11.001182           1             0.031932    [1[6[8][1][1]]]                                             
  H           0.368586            -6.303852             10.296663           1             0.031932    [1[6[8][1][1]]]                                             
  H           1.165742            -5.092801             11.336747           1             0.031932    [1[6[8][1][1]]]                                             
