12

  C           0.087920             11.308963            0.649486            0             0.099454    [6[8[1]][1][1][1]]                                          
  O           0.017580             10.819536            1.936204            0            -0.597823    [8[6[1][1][1]][1]]                                          
  H          -0.128678             9.860366             1.843433            0             0.402573    [1[8[6]]]                                                   
  H           1.174347             11.138090            0.340180            0             0.031932    [1[6[8][1][1]]]                                             
  H          -0.565153             10.669549            0.033992            0             0.031932    [1[6[8][1][1]]]                                             
  H          -0.259076             12.386729            0.732022            0             0.031932    [1[6[8][1][1]]]                                             
  C           0.291117             7.152671             2.904466            1             0.099454    [6[8[1]][1][1][1]]                                          
  O           0.770029             8.084464             1.947282            1            -0.597823    [8[6[1][1][1]][1]]                                          
  H           1.747909             8.077446             1.964323            1             0.402573    [1[8[6]]]                                                   
  H           1.031792             6.918922             3.673868            1             0.031932    [1[6[8][1][1]]]                                             
  H          -0.641739             7.632905             3.339170            1             0.031932    [1[6[8][1][1]]]                                             
  H           0.051420             6.234753             2.473588            1             0.031932    [1[6[8][1][1]]]                                             
