12

  C          -7.942409            -2.379003            -9.459658            0             0.099454    [6[8[1]][1][1][1]]                                          
  O          -7.867683            -3.795945            -9.391160            0            -0.597823    [8[6[1][1][1]][1]]                                          
  H          -8.719740            -4.186714            -9.465420            0             0.402573    [1[8[6]]]                                                   
  H          -7.748901            -1.924920            -8.467208            0             0.031932    [1[6[8][1][1]]]                                             
  H          -7.233413            -1.909138            -10.170256           0             0.031932    [1[6[8][1][1]]]                                             
  H          -8.967834            -2.145940            -9.738359            0             0.031932    [1[6[8][1][1]]]                                             
  C          -10.334582           -4.254306            -5.781806            1             0.099454    [6[8[1]][1][1][1]]                                          
  O          -9.139955            -3.452755            -5.800609            1            -0.597823    [8[6[1][1][1]][1]]                                          
  H          -8.833748            -3.296327            -6.693903            1             0.402573    [1[8[6]]]                                                   
  H          -10.701949           -4.294493            -4.818483            1             0.031932    [1[6[8][1][1]]]                                             
  H          -11.133352           -3.759334            -6.328138            1             0.031932    [1[6[8][1][1]]]                                             
  H          -10.229096           -5.277931            -6.251611            1             0.031932    [1[6[8][1][1]]]                                             
