12

  C           3.632446            -6.994954             3.184119            0             0.099454    [6[8[1]][1][1][1]]                                          
  O           4.407674            -7.329784             1.949356            0            -0.597823    [8[6[1][1][1]][1]]                                          
  H           4.084722            -6.757850             1.277197            0             0.402573    [1[8[6]]]                                                   
  H           3.654814            -7.907382             3.783212            0             0.031932    [1[6[8][1][1]]]                                             
  H           4.085916            -6.202538             3.691906            0             0.031932    [1[6[8][1][1]]]                                             
  H           2.536765            -6.837212             2.963092            0             0.031932    [1[6[8][1][1]]]                                             
  C           4.375305            -6.590619             8.570160            1             0.099454    [6[8[1]][1][1][1]]                                          
  O           3.198486            -6.577218             7.791134            1            -0.597823    [8[6[1][1][1]][1]]                                          
  H           3.032970            -7.405576             7.363455            1             0.402573    [1[8[6]]]                                                   
  H           5.218908            -6.092983             8.186280            1             0.031932    [1[6[8][1][1]]]                                             
  H           4.268135            -6.210172             9.560701            1             0.031932    [1[6[8][1][1]]]                                             
  H           4.850639            -7.577461             8.626271            1             0.031932    [1[6[8][1][1]]]                                             
