12

  C           6.555521             2.875121             5.302771            0             0.099454    [6[8[1]][1][1][1]]                                          
  O           5.960526             2.912413             6.541502            0            -0.597823    [8[6[1][1][1]][1]]                                          
  H           5.034107             2.707951             6.433674            0             0.402573    [1[8[6]]]                                                   
  H           6.880396             3.815636             4.981021            0             0.031932    [1[6[8][1][1]]]                                             
  H           7.546284             2.419773             5.320943            0             0.031932    [1[6[8][1][1]]]                                             
  H           5.929050             2.395693             4.578541            0             0.031932    [1[6[8][1][1]]]                                             
  C           6.823729             6.653392             4.663200            1             0.099454    [6[8[1]][1][1][1]]                                          
  O           5.853408             7.293050             3.735871            1            -0.597823    [8[6[1][1][1]][1]]                                          
  H           5.958699             6.875321             2.844677            1             0.402573    [1[8[6]]]                                                   
  H           6.405214             6.361899             5.666741            1             0.031932    [1[6[8][1][1]]]                                             
  H           7.327214             5.758224             4.307533            1             0.031932    [1[6[8][1][1]]]                                             
  H           7.632612             7.335827             4.701187            1             0.031932    [1[6[8][1][1]]]                                             
