12

  C          -9.116109             5.828608            -3.149760            0             0.099454    [6[8[1]][1][1][1]]                                          
  O          -8.666366             7.180685            -3.469790            0            -0.597823    [8[6[1][1][1]][1]]                                          
  H          -8.814491             7.394887            -4.363041            0             0.402573    [1[8[6]]]                                                   
  H          -9.459913             5.864401            -2.148955            0             0.031932    [1[6[8][1][1]]]                                             
  H          -9.944737             5.470337            -3.807818            0             0.031932    [1[6[8][1][1]]]                                             
  H          -8.309017             5.140862            -3.188582            0             0.031932    [1[6[8][1][1]]]                                             
  C          -9.322901             11.078570           -2.047191            1             0.099454    [6[8[1]][1][1][1]]                                          
  O          -9.225321             9.984224            -2.949248            1            -0.597823    [8[6[1][1][1]][1]]                                          
  H          -9.121819             9.197441            -2.412125            1             0.402573    [1[8[6]]]                                                   
  H          -9.874648             10.829413           -1.138850            1             0.031932    [1[6[8][1][1]]]                                             
  H          -8.353701             11.301344           -1.708211            1             0.031932    [1[6[8][1][1]]]                                             
  H          -9.668864             11.916965           -2.614837            1             0.031932    [1[6[8][1][1]]]                                             
