12

  C          -10.786374           -2.434926             6.102013            0             0.099454    [6[8[1]][1][1][1]]                                          
  O          -9.534967            -2.920032             6.721126            0            -0.597823    [8[6[1][1][1]][1]]                                          
  H          -9.546065            -3.876163             6.859019            0             0.402573    [1[8[6]]]                                                   
  H          -10.700096           -1.362841             6.063289            0             0.031932    [1[6[8][1][1]]]                                             
  H          -10.879818           -2.671802             5.082183            0             0.031932    [1[6[8][1][1]]]                                             
  H          -11.722517           -2.729585             6.503359            0             0.031932    [1[6[8][1][1]]]                                             
  C          -9.194448            -7.165680             8.606012            1             0.099454    [6[8[1]][1][1][1]]                                          
  O          -9.483807            -8.443194             7.922237            1            -0.597823    [8[6[1][1][1]][1]]                                          
  H          -8.780202            -9.018449             8.087057            1             0.402573    [1[8[6]]]                                                   
  H          -8.510834            -6.560886             7.980636            1             0.031932    [1[6[8][1][1]]]                                             
  H          -10.076085           -6.566288             8.744051            1             0.031932    [1[6[8][1][1]]]                                             
  H          -8.775180            -7.380842             9.649389            1             0.031932    [1[6[8][1][1]]]                                             
