12

  C           7.069487             6.948817             1.348319            0             0.099454    [6[8[1]][1][1][1]]                                          
  O           6.833436             7.462442             0.067141            0            -0.597823    [8[6[1][1][1]][1]]                                          
  H           6.469724             6.786522            -0.512093            0             0.402573    [1[8[6]]]                                                   
  H           6.543788             6.020128             1.325691            0             0.031932    [1[6[8][1][1]]]                                             
  H           8.106300             6.629288             1.569079            0             0.031932    [1[6[8][1][1]]]                                             
  H           6.689718             7.616708             2.082214            0             0.031932    [1[6[8][1][1]]]                                             
  C           4.501213             9.694876             2.436544            1             0.099454    [6[8[1]][1][1][1]]                                          
  O           3.663614             8.551303             2.178854            1            -0.597823    [8[6[1][1][1]][1]]                                          
  H           3.863532             7.881030             2.839845            1             0.402573    [1[8[6]]]                                                   
  H           5.518683             9.629017             1.891389            1             0.031932    [1[6[8][1][1]]]                                             
  H           4.050312             10.602869            2.109450            1             0.031932    [1[6[8][1][1]]]                                             
  H           4.865483             9.896784             3.449164            1             0.031932    [1[6[8][1][1]]]                                             
