12

  C          -4.271362            -6.781263             8.274301            0             0.099454    [6[8[1]][1][1][1]]                                          
  O          -5.717525            -6.698937             8.025540            0            -0.597823    [8[6[1][1][1]][1]]                                          
  H          -5.953044            -5.734474             8.061774            0             0.402573    [1[8[6]]]                                                   
  H          -3.764510            -6.621116             7.333833            0             0.031932    [1[6[8][1][1]]]                                             
  H          -3.943642            -6.008711             8.938294            0             0.031932    [1[6[8][1][1]]]                                             
  H          -4.094203            -7.727645             8.672132            0             0.031932    [1[6[8][1][1]]]                                             
  C          -6.980682            -3.287969             5.853607            1             0.099454    [6[8[1]][1][1][1]]                                          
  O          -6.599467            -2.790154             7.111817            1            -0.597823    [8[6[1][1][1]][1]]                                          
  H          -7.028270            -3.384493             7.749280            1             0.402573    [1[8[6]]]                                                   
  H          -7.681012            -4.109412             5.997408            1             0.031932    [1[6[8][1][1]]]                                             
  H          -7.493825            -2.515695             5.337518            1             0.031932    [1[6[8][1][1]]]                                             
  H          -6.164806            -3.675723             5.310850            1             0.031932    [1[6[8][1][1]]]                                             
