6
Indices: 0 1 2 3 4 5
C             3.01118929466596    -1.18113182537649     0.59863649541908    [6[8[1]][1][1][1]]
O             4.39455460900739    -1.12828469301091     0.87445219885497    [8[6[1][1][1]][1]]
H             4.77231428380243    -0.37878719782511     0.41234841409173    [1[8[6]]]
H             2.80631599661588    -1.31919955158548    -0.46920497635098    [1[6[8][1][1]]]
H             2.61151377514098    -2.04049965313137     1.13604305777814    [1[6[8][1][1]]]
H             2.48463891330563    -0.28472579188493     0.94580357497553    [1[6[8][1][1]]]
