12

  C           1.487376            -0.428665             4.266690            0             0.099454    [6[8[1]][1][1][1]]                                          
  O           2.630056            -0.194025             5.057445            0            -0.597823    [8[6[1][1][1]][1]]                                          
  H           2.762876            -0.876611             5.745413            0             0.402573    [1[8[6]]]                                                   
  H           1.308714             0.285588             3.519412            0             0.031932    [1[6[8][1][1]]]                                             
  H           1.633911            -1.323911             3.744331            0             0.031932    [1[6[8][1][1]]]                                             
  H           0.553844            -0.624710             4.835763            0             0.031932    [1[6[8][1][1]]]                                             
  C           3.132644             3.222198             4.076111            1             0.099454    [6[8[1]][1][1][1]]                                          
  O           3.585129             2.151059             3.263239            1            -0.597823    [8[6[1][1][1]][1]]                                          
  H           3.399874             1.306535             3.659591            1             0.402573    [1[8[6]]]                                                   
  H           3.644355             4.164192             3.816641            1             0.031932    [1[6[8][1][1]]]                                             
  H           2.066095             3.216518             4.075413            1             0.031932    [1[6[8][1][1]]]                                             
  H           3.409220             3.129167             5.137535            1             0.031932    [1[6[8][1][1]]]                                             
