12

  C           11.474556            2.102910            -9.297509            0             0.099454    [6[8[1]][1][1][1]]                                          
  O           10.307835            2.200152            -8.489772            0            -0.597823    [8[6[1][1][1]][1]]                                          
  H           9.766941             1.402733            -8.572671            0             0.402573    [1[8[6]]]                                                   
  H           11.357470            1.455794            -10.216754           0             0.031932    [1[6[8][1][1]]]                                             
  H           11.682326            3.060955            -9.649247            0             0.031932    [1[6[8][1][1]]]                                             
  H           12.259209            1.769761            -8.610688            0             0.031932    [1[6[8][1][1]]]                                             
  C           11.631059            3.059737            -5.774985            1             0.099454    [6[8[1]][1][1][1]]                                          
  O           10.905304            2.740194            -4.618997            1            -0.597823    [8[6[1][1][1]][1]]                                          
  H           10.421295            3.465015            -4.263803            1             0.402573    [1[8[6]]]                                                   
  H           12.212335            2.216138            -6.149784            1             0.031932    [1[6[8][1][1]]]                                             
  H           10.839864            3.262608            -6.530480            1             0.031932    [1[6[8][1][1]]]                                             
  H           12.263251            3.898941            -5.592891            1             0.031932    [1[6[8][1][1]]]                                             
