12

  C          -6.076476             10.396994            8.572423            0             0.099454    [6[8[1]][1][1][1]]                                          
  O          -4.913337             11.136352            8.302519            0            -0.597823    [8[6[1][1][1]][1]]                                          
  H          -4.968444             12.080275            8.375493            0             0.402573    [1[8[6]]]                                                   
  H          -6.294389             9.678972             7.724420            0             0.031932    [1[6[8][1][1]]]                                             
  H          -6.081936             9.823034             9.605426            0             0.031932    [1[6[8][1][1]]]                                             
  H          -6.905947             11.125597            8.466702            0             0.031932    [1[6[8][1][1]]]                                             
  C          -1.762520             6.941765             7.397373            1             0.099454    [6[8[1]][1][1][1]]                                          
  O          -0.721336             7.823478             7.094080            1            -0.597823    [8[6[1][1][1]][1]]                                          
  H          -0.933814             8.336408             6.325097            1             0.402573    [1[8[6]]]                                                   
  H          -2.531944             7.407656             8.006269            1             0.031932    [1[6[8][1][1]]]                                             
  H          -2.197197             6.657989             6.428430            1             0.031932    [1[6[8][1][1]]]                                             
  H          -1.425565             5.995266             7.871045            1             0.031932    [1[6[8][1][1]]]                                             
