12

  C           4.197069            -5.731458             9.963804            0             0.099454    [6[8[1]][1][1][1]]                                          
  O           3.094894            -5.843376             9.191124            0            -0.597823    [8[6[1][1][1]][1]]                                          
  H           2.638128            -4.976491             9.044959            0             0.402573    [1[8[6]]]                                                   
  H           4.671865            -6.648630             10.240441           0             0.031932    [1[6[8][1][1]]]                                             
  H           4.946971            -5.153106             9.403973            0             0.031932    [1[6[8][1][1]]]                                             
  H           3.975430            -5.220114             10.891315           0             0.031932    [1[6[8][1][1]]]                                             
  C           3.629053            -10.067203            10.010666           1             0.099454    [6[8[1]][1][1][1]]                                          
  O           3.062133            -10.602289            8.908050            1            -0.597823    [8[6[1][1][1]][1]]                                          
  H           3.111479            -9.974572             8.115587            1             0.402573    [1[8[6]]]                                                   
  H           4.494898            -10.598688            10.325043           1             0.031932    [1[6[8][1][1]]]                                             
  H           3.927411            -9.128733             9.631725            1             0.031932    [1[6[8][1][1]]]                                             
  H           2.928316            -9.972586             10.864045           1             0.031932    [1[6[8][1][1]]]                                             
