12

  C           2.886451             6.089401             11.037753           0             0.099454    [6[8[1]][1][1][1]]                                          
  O           4.041157             6.683180             11.490274           0            -0.597823    [8[6[1][1][1]][1]]                                          
  H           4.744214             6.116429             11.163121           0             0.402573    [1[8[6]]]                                                   
  H           2.217283             6.806699             10.805423           0             0.031932    [1[6[8][1][1]]]                                             
  H           3.131328             5.432262             10.233305           0             0.031932    [1[6[8][1][1]]]                                             
  H           2.362541             5.562157             11.812722           0             0.031932    [1[6[8][1][1]]]                                             
  C           5.691484             3.687589             9.924490            1             0.099454    [6[8[1]][1][1][1]]                                          
  O           6.258085             4.825600             10.501742           1            -0.597823    [8[6[1][1][1]][1]]                                          
  H           6.803785             4.441316             11.184949           1             0.402573    [1[8[6]]]                                                   
  H           4.910656             3.932939             9.158652            1             0.031932    [1[6[8][1][1]]]                                             
  H           6.429347             3.084495             9.375911            1             0.031932    [1[6[8][1][1]]]                                             
  H           5.196778             2.975778             10.677494           1             0.031932    [1[6[8][1][1]]]                                             
