12

  C          -3.521737            -6.032928            -3.997539            0             0.099454    [6[8[1]][1][1][1]]                                          
  O          -3.209134            -4.842496            -3.204906            0            -0.597823    [8[6[1][1][1]][1]]                                          
  H          -3.319984            -4.094860            -3.795784            0             0.402573    [1[8[6]]]                                                   
  H          -3.627151            -6.940647            -3.414398            0             0.031932    [1[6[8][1][1]]]                                             
  H          -4.523750            -5.897630            -4.422226            0             0.031932    [1[6[8][1][1]]]                                             
  H          -2.762533            -6.264531            -4.740990            0             0.031932    [1[6[8][1][1]]]                                             
  C          -5.752670            -2.614842            -0.937438            1             0.099454    [6[8[1]][1][1][1]]                                          
  O          -5.811295            -3.348230            -2.117618            1            -0.597823    [8[6[1][1][1]][1]]                                          
  H          -6.084452            -2.675142            -2.728560            1             0.402573    [1[8[6]]]                                                   
  H          -6.751639            -2.518211            -0.460841            1             0.031932    [1[6[8][1][1]]]                                             
  H          -5.101315            -3.075531            -0.228291            1             0.031932    [1[6[8][1][1]]]                                             
  H          -5.384440            -1.549916            -1.038424            1             0.031932    [1[6[8][1][1]]]                                             
