12

  C           1.922953            -3.077625             2.484926            0             0.099454    [6[8[1]][1][1][1]]                                          
  O           1.345528            -3.086113             1.131528            0            -0.597823    [8[6[1][1][1]][1]]                                          
  H           1.970459            -2.601192             0.562478            0             0.402573    [1[8[6]]]                                                   
  H           2.975251            -2.827903             2.476688            0             0.031932    [1[6[8][1][1]]]                                             
  H           1.326520            -2.461149             3.132407            0             0.031932    [1[6[8][1][1]]]                                             
  H           1.791371            -4.136435             2.840835            0             0.031932    [1[6[8][1][1]]]                                             
  C           3.907215            -1.347456            -1.080740            1             0.099454    [6[8[1]][1][1][1]]                                          
  O           3.559798            -1.759737             0.190437            1            -0.597823    [8[6[1][1][1]][1]]                                          
  H           3.127090            -1.043949             0.616142            1             0.402573    [1[8[6]]]                                                   
  H           3.067104            -1.087912            -1.704948            1             0.031932    [1[6[8][1][1]]]                                             
  H           4.430530            -0.384175            -0.984382            1             0.031932    [1[6[8][1][1]]]                                             
  H           4.629387            -2.130290            -1.448063            1             0.031932    [1[6[8][1][1]]]                                             
