12

  C          -0.754698            -4.429643             3.939378            0             0.099454    [6[8[1]][1][1][1]]                                          
  O          -1.196798            -4.428082             5.254249            0            -0.597823    [8[6[1][1][1]][1]]                                          
  H          -0.395699            -4.752719             5.779728            0             0.402573    [1[8[6]]]                                                   
  H          -0.383757            -5.340087             3.635676            0             0.031932    [1[6[8][1][1]]]                                             
  H          -1.507620            -4.118996             3.190048            0             0.031932    [1[6[8][1][1]]]                                             
  H           0.031200            -3.762485             3.769299            0             0.031932    [1[6[8][1][1]]]                                             
  C          -0.190552            -1.346349             7.638156            1             0.099454    [6[8[1]][1][1][1]]                                          
  O          -0.224249            -1.612135             6.254584            1            -0.597823    [8[6[1][1][1]][1]]                                          
  H          -0.894124            -2.259526             6.100386            1             0.402573    [1[8[6]]]                                                   
  H          -0.148998            -2.211394             8.212019            1             0.031932    [1[6[8][1][1]]]                                             
  H           0.737630            -0.846319             7.968315            1             0.031932    [1[6[8][1][1]]]                                             
  H          -1.056056            -0.711829             7.991936            1             0.031932    [1[6[8][1][1]]]                                             
