12

  C           4.368537             5.393558            -2.809895            0             0.099454    [6[8[1]][1][1][1]]                                          
  O           3.561577             5.915263            -3.882099            0            -0.597823    [8[6[1][1][1]][1]]                                          
  H           2.747769             6.147654            -3.483270            0             0.402573    [1[8[6]]]                                                   
  H           4.522148             6.098134            -2.062670            0             0.031932    [1[6[8][1][1]]]                                             
  H           3.985404             4.497609            -2.348490            0             0.031932    [1[6[8][1][1]]]                                             
  H           5.365098             5.152908            -3.121065            0             0.031932    [1[6[8][1][1]]]                                             
  C           0.197106             5.643279            -2.810635            1             0.099454    [6[8[1]][1][1][1]]                                          
  O           0.990186             6.638446            -3.502178            1            -0.597823    [8[6[1][1][1]][1]]                                          
  H           0.467502             7.018824            -4.265643            1             0.402573    [1[8[6]]]                                                   
  H           0.725189             4.808074            -2.264387            1             0.031932    [1[6[8][1][1]]]                                             
  H          -0.343198             6.242626            -2.087123            1             0.031932    [1[6[8][1][1]]]                                             
  H          -0.659478             5.169632            -3.309473            1             0.031932    [1[6[8][1][1]]]                                             
