6
Indices: 0 1 2 3 4 5
C             3.01091557258611    -1.18091212245397     0.59841364638767    [6[8[1]][1][1][1]]
O             4.39506489481810    -1.12803503952629     0.87438566550214    [8[6[1][1][1]][1]]
H             4.77258800588228    -0.37900690074762     0.41257126312314    [1[8[6]]]
H             2.80604227453603    -1.31897984866296    -0.46942782538239    [1[6[8][1][1]]]
H             2.61124005306113    -2.04027995020886     1.13582020874673    [1[6[8][1][1]]]
H             2.48436519122578    -0.28450608896242     0.94558072594412    [1[6[8][1][1]]]
