12

  C           9.206192             2.657361             9.113873            0             0.099454    [6[8[1]][1][1][1]]                                          
  O           9.537454             1.298386             9.106032            0            -0.597823    [8[6[1][1][1]][1]]                                          
  H           8.908156             0.835783             9.650586            0             0.402573    [1[8[6]]]                                                   
  H           8.438459             2.799997             9.832986            0             0.031932    [1[6[8][1][1]]]                                             
  H           10.148782            3.218785             9.394563            0             0.031932    [1[6[8][1][1]]]                                             
  H           8.796245             2.992167             8.167669            0             0.031932    [1[6[8][1][1]]]                                             
  C           7.303674             0.687426             6.517185            1             0.099454    [6[8[1]][1][1][1]]                                          
  O           7.707774             1.463133             5.439199            1            -0.597823    [8[6[1][1][1]][1]]                                          
  H           7.376451             2.362845             5.531690            1             0.402573    [1[8[6]]]                                                   
  H           7.904835            -0.202361             6.651812            1             0.031932    [1[6[8][1][1]]]                                             
  H           7.412063             1.245180             7.486515            1             0.031932    [1[6[8][1][1]]]                                             
  H           6.233770             0.467527             6.340801            1             0.031932    [1[6[8][1][1]]]                                             
