12

  C           5.336748            -10.996211            4.260549            0             0.099454    [6[8[1]][1][1][1]]                                          
  O           5.074167            -11.905412            3.179210            0            -0.597823    [8[6[1][1][1]][1]]                                          
  H           4.188795            -11.588379            2.888647            0             0.402573    [1[8[6]]]                                                   
  H           5.897180            -11.453866            5.076552            0             0.031932    [1[6[8][1][1]]]                                             
  H           5.993802            -10.203456            3.843113            0             0.031932    [1[6[8][1][1]]]                                             
  H           4.420244            -10.644865            4.688939            0             0.031932    [1[6[8][1][1]]]                                             
  C           3.589931            -8.780427             2.342140            1             0.099454    [6[8[1]][1][1][1]]                                          
  O           2.650353            -9.661598             2.915198            1            -0.597823    [8[6[1][1][1]][1]]                                          
  H           2.204613            -9.230959             3.598600            1             0.402573    [1[8[6]]]                                                   
  H           4.248525            -9.402743             1.656322            1             0.031932    [1[6[8][1][1]]]                                             
  H           3.164319            -8.022571             1.708616            1             0.031932    [1[6[8][1][1]]]                                             
  H           4.228216            -8.361015             3.141949            1             0.031932    [1[6[8][1][1]]]                                             
