12

  C          -9.376882             2.477543            -4.713638            0             0.099454    [6[8[1]][1][1][1]]                                          
  O          -8.879101             1.249759            -4.251672            0            -0.597823    [8[6[1][1][1]][1]]                                          
  H          -8.504587             1.328272            -3.362079            0             0.402573    [1[8[6]]]                                                   
  H          -8.510873             3.150077            -4.795730            0             0.031932    [1[6[8][1][1]]]                                             
  H          -9.919677             2.295343            -5.655822            0             0.031932    [1[6[8][1][1]]]                                             
  H          -10.081456            2.950234            -3.991283            0             0.031932    [1[6[8][1][1]]]                                             
  C          -4.918628             1.185095            -3.716477            1             0.099454    [6[8[1]][1][1][1]]                                          
  O          -4.672259             0.000038            -4.366445            1            -0.597823    [8[6[1][1][1]][1]]                                          
  H          -4.953604             0.228841            -5.286936            1             0.402573    [1[8[6]]]                                                   
  H          -5.340126             1.935895            -4.329332            1             0.031932    [1[6[8][1][1]]]                                             
  H          -5.471046             0.979331            -2.770990            1             0.031932    [1[6[8][1][1]]]                                             
  H          -3.906583             1.564866            -3.351105            1             0.031932    [1[6[8][1][1]]]                                             
