12

  C          -6.106169            -7.139025             5.478536            0             0.099454    [6[8[1]][1][1][1]]                                          
  O          -7.250673            -6.358448             5.904261            0            -0.597823    [8[6[1][1][1]][1]]                                          
  H          -7.580413            -5.854131             5.158850            0             0.402573    [1[8[6]]]                                                   
  H          -5.225424            -6.537199             5.228452            0             0.031932    [1[6[8][1][1]]]                                             
  H          -5.853161            -7.888103             6.266709            0             0.031932    [1[6[8][1][1]]]                                             
  H          -6.381485            -7.683977             4.536477            0             0.031932    [1[6[8][1][1]]]                                             
  C          -10.609718           -6.506409             5.896428            1             0.099454    [6[8[1]][1][1][1]]                                          
  O          -11.093761           -5.800162             4.800761            1            -0.597823    [8[6[1][1][1]][1]]                                          
  H          -11.835064           -5.252951             5.266487            1             0.402573    [1[8[6]]]                                                   
  H          -10.686594           -7.567486             5.695055            1             0.031932    [1[6[8][1][1]]]                                             
  H          -9.632253            -6.324988             6.243751            1             0.031932    [1[6[8][1][1]]]                                             
  H          -11.223079           -6.309885             6.777493            1             0.031932    [1[6[8][1][1]]]                                             
