12

  C          -0.724076             2.085475             2.183284            0             0.099454    [6[8[1]][1][1][1]]                                          
  O          -1.374681             2.465893             3.392818            0            -0.597823    [8[6[1][1][1]][1]]                                          
  H          -1.953464             3.260510             3.216241            0             0.402573    [1[8[6]]]                                                   
  H           0.226551             1.538815             2.290839            0             0.031932    [1[6[8][1][1]]]                                             
  H          -1.235051             1.347565             1.552322            0             0.031932    [1[6[8][1][1]]]                                             
  H          -0.372481             2.892699             1.636223            0             0.031932    [1[6[8][1][1]]]                                             
  C          -0.024007             2.080020             6.984736            1             0.099454    [6[8[1]][1][1][1]]                                          
  O           0.299046             1.756115             5.654286            1            -0.597823    [8[6[1][1][1]][1]]                                          
  H          -0.364095             2.158002             5.124709            1             0.402573    [1[8[6]]]                                                   
  H           0.695163             2.885084             7.303017            1             0.031932    [1[6[8][1][1]]]                                             
  H          -1.035840             2.500410             7.043832            1             0.031932    [1[6[8][1][1]]]                                             
  H          -0.006311             1.375831             7.786543            1             0.031932    [1[6[8][1][1]]]                                             
