12

  C           5.769253             2.723060            -5.358341            0             0.099454    [6[8[1]][1][1][1]]                                          
  O           4.814784             3.262569            -6.303090            0            -0.597823    [8[6[1][1][1]][1]]                                          
  H           4.560570             4.189452            -6.048641            0             0.402573    [1[8[6]]]                                                   
  H           5.512399             1.716891            -5.023752            0             0.031932    [1[6[8][1][1]]]                                             
  H           6.764949             2.673232            -5.826764            0             0.031932    [1[6[8][1][1]]]                                             
  H           5.846086             3.305604            -4.359895            0             0.031932    [1[6[8][1][1]]]                                             
  C           4.213219             6.390561            -7.710729            1             0.099454    [6[8[1]][1][1][1]]                                          
  O           4.760920             5.928539            -6.468823            1            -0.597823    [8[6[1][1][1]][1]]                                          
  H           4.182617             6.120073            -5.792908            1             0.402573    [1[8[6]]]                                                   
  H           4.909156             6.099919            -8.450513            1             0.031932    [1[6[8][1][1]]]                                             
  H           3.268754             5.973161            -7.900404            1             0.031932    [1[6[8][1][1]]]                                             
  H           4.083967             7.469272            -7.787671            1             0.031932    [1[6[8][1][1]]]                                             
