6
Indices: 0 1 2 3 4 5
C             3.01154778031723    -1.18130607313806     0.59833343220829    [6[8[1]][1][1][1]]
O             4.39491309465866    -1.12845894077248     0.87414913564418    [8[6[1][1][1]][1]]
H             4.77243620572284    -0.37943080199382     0.41233473326518    [1[8[6]]]
H             2.80667448226715    -1.31937379934705    -0.46950803956177    [1[6[8][1][1]]]
H             2.61187226079225    -2.04067390089294     1.13573999456735    [1[6[8][1][1]]]
H             2.48451699138522    -0.28408218771622     0.94581725580208    [1[6[8][1][1]]]
