12

  C          -10.740696            0.069440            -10.728717           0             0.099454    [6[8[1]][1][1][1]]                                          
  O          -11.549840           -0.537173            -9.674106            0            -0.597823    [8[6[1][1][1]][1]]                                          
  H          -11.042544           -0.553567            -8.832040            0             0.402573    [1[8[6]]]                                                   
  H          -11.035227           -0.576006            -11.587952           0             0.031932    [1[6[8][1][1]]]                                             
  H          -10.968419            1.122534            -10.931376           0             0.031932    [1[6[8][1][1]]]                                             
  H          -9.645446            -0.171504            -10.589674           0             0.031932    [1[6[8][1][1]]]                                             
  C          -10.540695           -3.027973            -8.520767            1             0.099454    [6[8[1]][1][1][1]]                                          
  O          -9.835101            -2.018462            -7.819397            1            -0.597823    [8[6[1][1][1]][1]]                                          
  H          -8.968215            -2.361600            -7.626094            1             0.402573    [1[8[6]]]                                                   
  H          -10.259530           -3.059163            -9.589178            1             0.031932    [1[6[8][1][1]]]                                             
  H          -10.360601           -4.070724            -8.208542            1             0.031932    [1[6[8][1][1]]]                                             
  H          -11.604389           -2.874553            -8.387878            1             0.031932    [1[6[8][1][1]]]                                             
