12

  C          -1.761067             5.722091            -2.002277            0             0.099454    [6[8[1]][1][1][1]]                                          
  O          -1.949604             4.450320            -2.319201            0            -0.597823    [8[6[1][1][1]][1]]                                          
  H          -2.743328             3.992807            -2.075747            0             0.402573    [1[8[6]]]                                                   
  H          -2.692750             6.144057            -1.678658            0             0.031932    [1[6[8][1][1]]]                                             
  H          -0.954174             5.871586            -1.341224            0             0.031932    [1[6[8][1][1]]]                                             
  H          -1.561292             6.309232            -2.952997            0             0.031932    [1[6[8][1][1]]]                                             
  C          -7.108575             6.913722            -0.857616            1             0.099454    [6[8[1]][1][1][1]]                                          
  O          -5.910933             6.151993            -0.758104            1            -0.597823    [8[6[1][1][1]][1]]                                          
  H          -6.108608             5.514156             0.021846            1             0.402573    [1[8[6]]]                                                   
  H          -8.052278             6.348833            -0.737678            1             0.031932    [1[6[8][1][1]]]                                             
  H          -7.212517             7.592448            -0.076732            1             0.031932    [1[6[8][1][1]]]                                             
  H          -7.252339             7.360240            -1.857203            1             0.031932    [1[6[8][1][1]]]                                             
