16

O  2.01453000           0.27759000           1.18970000         
C  1.99229000           0.09841000          -0.19881000         
C  2.96767000           1.07857000          -0.84985000         
C  2.98157000           0.91686000          -2.37498000         
C  3.95748000           1.89723000          -3.02503000         
O  3.94254000           1.71327000          -4.41300000         
H  1.37234000          -0.38082000           1.56251000         
H  0.96616000           0.29312000          -0.58425000         
H  2.30035000          -0.94246000          -0.44616000         
H  3.98838000           0.89282000          -0.44876000         
H  2.66517000           2.11676000          -0.58935000         
H  1.96118000           1.10142000          -2.77746000         
H  3.28526000          -0.12126000          -2.63439000         
H  4.98216000           1.70614000          -2.63383000         
H  3.64597000           2.93825000          -2.78287000         
H  4.59455000           2.36323000          -4.78366000         
