12

  C          -4.436404            -0.272162            -8.295622            0             0.099454    [6[8[1]][1][1][1]]                                          
  O          -4.799837            -0.104857            -6.970533            0            -0.597823    [8[6[1][1][1]][1]]                                          
  H          -4.263745             0.539021            -6.535628            0             0.402573    [1[8[6]]]                                                   
  H          -4.690986             0.619393            -8.951854            0             0.031932    [1[6[8][1][1]]]                                             
  H          -3.332834            -0.407607            -8.352097            0             0.031932    [1[6[8][1][1]]]                                             
  H          -4.835055            -1.202201            -8.789078            0             0.031932    [1[6[8][1][1]]]                                             
  C          -4.035826             3.602691            -6.259636            1             0.099454    [6[8[1]][1][1][1]]                                          
  O          -3.371976             2.385973            -6.428741            1            -0.597823    [8[6[1][1][1]][1]]                                          
  H          -2.425524             2.630359            -6.586331            1             0.402573    [1[8[6]]]                                                   
  H          -5.124639             3.452546            -6.112289            1             0.031932    [1[6[8][1][1]]]                                             
  H          -3.624570             4.076056            -5.310521            1             0.031932    [1[6[8][1][1]]]                                             
  H          -3.821326             4.349010            -7.031137            1             0.031932    [1[6[8][1][1]]]                                             
