12

  C          -2.565252             4.718114            -0.085181            0             0.099454    [6[8[1]][1][1][1]]                                          
  O          -2.001019             4.805665            -1.430314            0            -0.597823    [8[6[1][1][1]][1]]                                          
  H          -1.240345             5.338943            -1.221299            0             0.402573    [1[8[6]]]                                                   
  H          -1.779562             4.387065             0.613376            0             0.031932    [1[6[8][1][1]]]                                             
  H          -2.893558             5.626545             0.347260            0             0.031932    [1[6[8][1][1]]]                                             
  H          -3.394099             4.098800             0.009473            0             0.031932    [1[6[8][1][1]]]                                             
  C          -4.796835             4.220593            -3.241438            1             0.099454    [6[8[1]][1][1][1]]                                          
  O          -3.623748             3.536145            -3.223031            1            -0.597823    [8[6[1][1][1]][1]]                                          
  H          -2.971808             4.116737            -2.850805            1             0.402573    [1[8[6]]]                                                   
  H          -5.639609             3.584267            -3.211431            1             0.031932    [1[6[8][1][1]]]                                             
  H          -4.869373             4.911366            -2.405323            1             0.031932    [1[6[8][1][1]]]                                             
  H          -4.833303             4.912710            -4.107537            1             0.031932    [1[6[8][1][1]]]                                             
