12

  C          -2.553089            -9.341690             7.829840            0             0.099454    [6[8[1]][1][1][1]]                                          
  O          -3.202982            -9.262673             6.528423            0            -0.597823    [8[6[1][1][1]][1]]                                          
  H          -3.995979            -9.807772             6.501171            0             0.402573    [1[8[6]]]                                                   
  H          -1.675079            -8.720392             7.907150            0             0.031932    [1[6[8][1][1]]]                                             
  H          -3.152298            -8.937749             8.646217            0             0.031932    [1[6[8][1][1]]]                                             
  H          -2.217675            -10.345372            8.116701            0             0.031932    [1[6[8][1][1]]]                                             
  C          -6.542169            -8.914744             7.551688            1             0.099454    [6[8[1]][1][1][1]]                                          
  O          -5.821048            -8.219840             8.538104            1            -0.597823    [8[6[1][1][1]][1]]                                          
  H          -4.894167            -8.094710             8.192385            1             0.402573    [1[8[6]]]                                                   
  H          -5.939623            -9.394232             6.790370            1             0.031932    [1[6[8][1][1]]]                                             
  H          -7.311096            -9.508938             7.971957            1             0.031932    [1[6[8][1][1]]]                                             
  H          -7.045802            -8.227114             6.811990            1             0.031932    [1[6[8][1][1]]]                                             
