12

  C           6.240257            -3.486396             0.328244            0             0.099454    [6[8[1]][1][1][1]]                                          
  O           7.407682            -3.671008            -0.383972            0            -0.597823    [8[6[1][1][1]][1]]                                          
  H           7.952128            -4.335552            -0.003175            0             0.402573    [1[8[6]]]                                                   
  H           6.224370            -4.059562             1.284200            0             0.031932    [1[6[8][1][1]]]                                             
  H           6.097100            -2.413471             0.559097            0             0.031932    [1[6[8][1][1]]]                                             
  H           5.374843            -3.919506            -0.240133            0             0.031932    [1[6[8][1][1]]]                                             
  C           7.607285            -5.451688            -4.193756            1             0.099454    [6[8[1]][1][1][1]]                                          
  O           8.840122            -5.024464            -4.757572            1            -0.597823    [8[6[1][1][1]][1]]                                          
  H           9.236338            -4.323014            -4.290223            1             0.402573    [1[8[6]]]                                                   
  H           7.692302            -5.746558            -3.175119            1             0.031932    [1[6[8][1][1]]]                                             
  H           6.876736            -4.628547            -4.298297            1             0.031932    [1[6[8][1][1]]]                                             
  H           7.263589            -6.399799            -4.644602            1             0.031932    [1[6[8][1][1]]]                                             
