12

  C          -4.761511             4.033597             0.644561            0             0.099454    [6[8[1]][1][1][1]]                                          
  O          -5.840978             3.433233             0.049642            0            -0.597823    [8[6[1][1][1]][1]]                                          
  H          -5.492849             2.523633             0.104784            0             0.402573    [1[8[6]]]                                                   
  H          -3.783085             3.629081             0.423102            0             0.031932    [1[6[8][1][1]]]                                             
  H          -4.640133             5.102742             0.387107            0             0.031932    [1[6[8][1][1]]]                                             
  H          -4.887416             4.115966             1.738798            0             0.031932    [1[6[8][1][1]]]                                             
  C          -4.140601             4.017611            -3.706493            1             0.099454    [6[8[1]][1][1][1]]                                          
  O          -4.263904             3.967901            -2.364951            1            -0.597823    [8[6[1][1][1]][1]]                                          
  H          -5.079723             4.217883            -1.945731            1             0.402573    [1[8[6]]]                                                   
  H          -4.671570             3.223314            -4.151186            1             0.031932    [1[6[8][1][1]]]                                             
  H          -4.523097             4.919380            -4.129298            1             0.031932    [1[6[8][1][1]]]                                             
  H          -3.104929             3.963434            -3.947013            1             0.031932    [1[6[8][1][1]]]                                             
