12

  C          -10.430630            5.965214            -6.659766            0             0.099454    [6[8[1]][1][1][1]]                                          
  O          -11.506915            6.842817            -6.664926            0            -0.597823    [8[6[1][1][1]][1]]                                          
  H          -12.269845            6.244401            -6.518812            0             0.402573    [1[8[6]]]                                                   
  H          -10.239529            5.594698            -5.660409            0             0.031932    [1[6[8][1][1]]]                                             
  H          -10.552653            5.211127            -7.463928            0             0.031932    [1[6[8][1][1]]]                                             
  H          -9.466643             6.469908            -6.833632            0             0.031932    [1[6[8][1][1]]]                                             
  C          -11.046784            2.331255            -5.862095            1             0.099454    [6[8[1]][1][1][1]]                                          
  O          -11.169544            3.118881            -4.683077            1            -0.597823    [8[6[1][1][1]][1]]                                          
  H          -10.486534            2.817791            -4.037589            1             0.402573    [1[8[6]]]                                                   
  H          -11.031143            1.223523            -5.663630            1             0.031932    [1[6[8][1][1]]]                                             
  H          -11.931930            2.431466            -6.449385            1             0.031932    [1[6[8][1][1]]]                                             
  H          -10.198741            2.693609            -6.433910            1             0.031932    [1[6[8][1][1]]]                                             
