12

  C          -5.021241            -8.045832             2.494545            0             0.099454    [6[8[1]][1][1][1]]                                          
  O          -5.989247            -7.308026             3.203133            0            -0.597823    [8[6[1][1][1]][1]]                                          
  H          -6.772489            -7.218520             2.640288            0             0.402573    [1[8[6]]]                                                   
  H          -4.100609            -8.060883             3.101031            0             0.031932    [1[6[8][1][1]]]                                             
  H          -5.262900            -9.056602             2.291049            0             0.031932    [1[6[8][1][1]]]                                             
  H          -4.833772            -7.685138             1.454732            0             0.031932    [1[6[8][1][1]]]                                             
  C          -6.433659            -7.688560            -2.264360            1             0.099454    [6[8[1]][1][1][1]]                                          
  O          -7.821233            -7.958168            -2.522958            1            -0.597823    [8[6[1][1][1]][1]]                                          
  H          -8.350406            -7.525737            -1.852029            1             0.402573    [1[8[6]]]                                                   
  H          -5.984123            -8.200384            -1.403321            1             0.031932    [1[6[8][1][1]]]                                             
  H          -5.834364            -7.884514            -3.193238            1             0.031932    [1[6[8][1][1]]]                                             
  H          -6.276113            -6.608584            -2.092495            1             0.031932    [1[6[8][1][1]]]                                             
