12

  C          -2.094311             2.283453             2.567803            0             0.099454    [6[8[1]][1][1][1]]                                          
  O          -2.206315             1.869918             1.194003            0            -0.597823    [8[6[1][1][1]][1]]                                          
  H          -3.161988             1.826491             1.108694            0             0.402573    [1[8[6]]]                                                   
  H          -2.770650             1.809254             3.256604            0             0.031932    [1[6[8][1][1]]]                                             
  H          -1.121342             2.272797             2.978147            0             0.031932    [1[6[8][1][1]]]                                             
  H          -2.354916             3.318122             2.580382            0             0.031932    [1[6[8][1][1]]]                                             
  C          -2.769662            -2.607001            -1.720003            1             0.099454    [6[8[1]][1][1][1]]                                          
  O          -3.415459            -1.368921            -1.945144            1            -0.597823    [8[6[1][1][1]][1]]                                          
  H          -3.397194            -1.181797            -2.930573            1             0.402573    [1[8[6]]]                                                   
  H          -1.645633            -2.601264            -1.937558            1             0.031932    [1[6[8][1][1]]]                                             
  H          -2.958031            -2.867113            -0.615470            1             0.031932    [1[6[8][1][1]]]                                             
  H          -3.102810            -3.427437            -2.374166            1             0.031932    [1[6[8][1][1]]]                                             
