9

C  0.92878000          -0.06375000           0.03188000         
O  2.33775000          -0.06194000           0.02755000         
C  2.80298000          -0.57955000           1.25265000         
H  0.57661000           0.34567000          -0.93716000         
H  0.52477000           0.59774000           0.83046000         
H  0.52475000          -1.09743000           0.11424000         
H  3.91219000          -0.57230000           1.23548000         
H  2.48682000          -1.63741000           1.39225000         
H  2.48684000           0.05777000           2.10846000         
