6
Coordinates from ORCA-job 7_geo_opt
  C   3.01157036120716     -1.18050013083443      0.59825543911493
  O   4.39506930688851     -1.12803876467494      0.87436529762099
  H   4.76987980986201     -0.37826458956674      0.41144345147284
  H   2.80692574242687     -1.31880292488215     -0.46962661680868
  H   2.61106634275928     -2.03962817461267      1.13531336096280
  H   2.48519043685616     -0.28407441542908      0.94571306763710
