12

  C          -9.153282            -8.477792             6.924629            0             0.099454    [6[8[1]][1][1][1]]                                          
  O          -7.769319            -8.220859             7.312762            0            -0.597823    [8[6[1][1][1]][1]]                                          
  H          -7.444320            -7.572881             6.635456            0             0.402573    [1[8[6]]]                                                   
  H          -9.273223            -9.351089             6.351012            0             0.031932    [1[6[8][1][1]]]                                             
  H          -9.805501            -8.522427             7.775496            0             0.031932    [1[6[8][1][1]]]                                             
  H          -9.528106            -7.587786             6.403392            0             0.031932    [1[6[8][1][1]]]                                             
  C          -4.497079            -9.106142             8.031546            1             0.099454    [6[8[1]][1][1][1]]                                          
  O          -5.521751            -10.135368            8.094001            1            -0.597823    [8[6[1][1][1]][1]]                                          
  H          -5.086157            -11.020833            7.979555            1             0.402573    [1[8[6]]]                                                   
  H          -3.515547            -9.363153             7.620147            1             0.031932    [1[6[8][1][1]]]                                             
  H          -4.802924            -8.275146             7.405518            1             0.031932    [1[6[8][1][1]]]                                             
  H          -4.278909            -8.661868             9.023498            1             0.031932    [1[6[8][1][1]]]                                             
