12

  C           7.632217             9.699304            -7.585289            0             0.099454    [6[8[1]][1][1][1]]                                          
  O           8.220885             8.717487            -8.487322            0            -0.597823    [8[6[1][1][1]][1]]                                          
  H           8.292732             7.918457            -7.923862            0             0.402573    [1[8[6]]]                                                   
  H           7.388094             10.683171           -8.048767            0             0.031932    [1[6[8][1][1]]]                                             
  H           6.886025             9.245156            -6.974468            0             0.031932    [1[6[8][1][1]]]                                             
  H           8.453979             9.988415            -6.909452            0             0.031932    [1[6[8][1][1]]]                                             
  C           4.454285             8.442810            -10.203848           1             0.099454    [6[8[1]][1][1][1]]                                          
  O           4.742119             7.468918            -9.203027            1            -0.597823    [8[6[1][1][1]][1]]                                          
  H           5.619634             7.120077            -9.380963            1             0.402573    [1[8[6]]]                                                   
  H           3.502124             8.966420            -10.208412           1             0.031932    [1[6[8][1][1]]]                                             
  H           5.283847             9.216820            -10.153765           1             0.031932    [1[6[8][1][1]]]                                             
  H           4.534951             7.926899            -11.162787           1             0.031932    [1[6[8][1][1]]]                                             
