12

  C          -4.571858            -8.509217             7.080362            0             0.099454    [6[8[1]][1][1][1]]                                          
  O          -3.583468            -7.449682             7.394431            0            -0.597823    [8[6[1][1][1]][1]]                                          
  H          -3.572475            -6.902586             6.640899            0             0.402573    [1[8[6]]]                                                   
  H          -4.180799            -9.176255             6.298429            0             0.031932    [1[6[8][1][1]]]                                             
  H          -4.673121            -9.129860             7.950470            0             0.031932    [1[6[8][1][1]]]                                             
  H          -5.476760            -8.065264             6.898514            0             0.031932    [1[6[8][1][1]]]                                             
  C          -5.021241            -8.045832             2.494545            1             0.099454    [6[8[1]][1][1][1]]                                          
  O          -5.989247            -7.308026             3.203133            1            -0.597823    [8[6[1][1][1]][1]]                                          
  H          -6.772489            -7.218520             2.640288            1             0.402573    [1[8[6]]]                                                   
  H          -4.100609            -8.060883             3.101031            1             0.031932    [1[6[8][1][1]]]                                             
  H          -5.262900            -9.056602             2.291049            1             0.031932    [1[6[8][1][1]]]                                             
  H          -4.833772            -7.685138             1.454732            1             0.031932    [1[6[8][1][1]]]                                             
