12

  C          -6.310086            -3.926838             1.277740            0             0.099454    [6[8[1]][1][1][1]]                                          
  O          -7.731180            -4.197409             1.454962            0            -0.597823    [8[6[1][1][1]][1]]                                          
  H          -7.719201            -4.762087             2.278271            0             0.402573    [1[8[6]]]                                                   
  H          -5.742679            -4.812015             0.987931            0             0.031932    [1[6[8][1][1]]]                                             
  H          -6.110303            -3.214105             0.491601            0             0.031932    [1[6[8][1][1]]]                                             
  H          -5.883718            -3.606113             2.231377            0             0.031932    [1[6[8][1][1]]]                                             
  C          -7.659629            -4.472034             5.252038            1             0.099454    [6[8[1]][1][1][1]]                                          
  O          -8.518829            -4.748822             4.136675            1            -0.597823    [8[6[1][1][1]][1]]                                          
  H          -9.275437            -4.126430             4.062496            1             0.402573    [1[8[6]]]                                                   
  H          -6.893624            -5.275388             5.267629            1             0.031932    [1[6[8][1][1]]]                                             
  H          -7.228614            -3.404280             5.310936            1             0.031932    [1[6[8][1][1]]]                                             
  H          -8.259196            -4.497080             6.162074            1             0.031932    [1[6[8][1][1]]]                                             
