12

  C           2.217427             1.697166             7.318958            0             0.099454    [6[8[1]][1][1][1]]                                          
  O           2.613277             1.466111             6.043018            0            -0.597823    [8[6[1][1][1]][1]]                                          
  H           3.481657             1.800172             5.873773            0             0.402573    [1[8[6]]]                                                   
  H           1.260983             2.194355             7.328991            0             0.031932    [1[6[8][1][1]]]                                             
  H           2.080021             0.874350             8.033211            0             0.031932    [1[6[8][1][1]]]                                             
  H           2.938580             2.440001             7.769617            0             0.031932    [1[6[8][1][1]]]                                             
  C           5.622197             4.177531             5.857045            1             0.099454    [6[8[1]][1][1][1]]                                          
  O           5.373189             2.909871             5.151419            1            -0.597823    [8[6[1][1][1]][1]]                                          
  H           5.520784             3.119263             4.200811            1             0.402573    [1[8[6]]]                                                   
  H           6.209924             4.019103             6.829444            1             0.031932    [1[6[8][1][1]]]                                             
  H           6.341922             4.804679             5.301261            1             0.031932    [1[6[8][1][1]]]                                             
  H           4.749316             4.849293             6.021225            1             0.031932    [1[6[8][1][1]]]                                             
