12

  C          -2.661434             0.095099            -1.013179            0             0.099454    [6[8[1]][1][1][1]]                                          
  O          -3.238537             1.069245            -1.880660            0            -0.597823    [8[6[1][1][1]][1]]                                          
  H          -2.525407             1.523243            -2.362530            0             0.402573    [1[8[6]]]                                                   
  H          -3.455402            -0.406456            -0.357671            0             0.031932    [1[6[8][1][1]]]                                             
  H          -2.118193            -0.664322            -1.552945            0             0.031932    [1[6[8][1][1]]]                                             
  H          -2.095586             0.597081            -0.237835            0             0.031932    [1[6[8][1][1]]]                                             
  C          -4.432749            -0.665005            -4.183704            1             0.099454    [6[8[1]][1][1][1]]                                          
  O          -5.511980            -0.222480            -3.434438            1            -0.597823    [8[6[1][1][1]][1]]                                          
  H          -5.248983             0.389718            -2.720610            1             0.402573    [1[8[6]]]                                                   
  H          -4.629903            -0.997595            -5.147036            1             0.031932    [1[6[8][1][1]]]                                             
  H          -3.745433             0.176684            -4.392793            1             0.031932    [1[6[8][1][1]]]                                             
  H          -3.865923            -1.420292            -3.627078            1             0.031932    [1[6[8][1][1]]]                                             
