12

  C           5.736915             6.096399            -5.489844            0             0.099454    [6[8[1]][1][1][1]]                                          
  O           5.154897             4.938208            -6.015251            0            -0.597823    [8[6[1][1][1]][1]]                                          
  H           5.492586             4.122501            -5.681083            0             0.402573    [1[8[6]]]                                                   
  H           5.357355             6.307799            -4.486453            0             0.031932    [1[6[8][1][1]]]                                             
  H           6.834772             6.055645            -5.421734            0             0.031932    [1[6[8][1][1]]]                                             
  H           5.315370             6.965713            -6.146136            0             0.031932    [1[6[8][1][1]]]                                             
  C           5.601645             2.865781            -2.937412            1             0.099454    [6[8[1]][1][1][1]]                                          
  O           6.469794             3.049377            -4.069682            1            -0.597823    [8[6[1][1][1]][1]]                                          
  H           7.333711             3.399525            -3.798781            1             0.402573    [1[8[6]]]                                                   
  H           5.628178             3.723211            -2.224318            1             0.031932    [1[6[8][1][1]]]                                             
  H           4.562722             2.880509            -3.237617            1             0.031932    [1[6[8][1][1]]]                                             
  H           5.848391             1.946578            -2.433106            1             0.031932    [1[6[8][1][1]]]                                             
