12

  C          -7.477111            -4.456450            -6.946488            0             0.099454    [6[8[1]][1][1][1]]                                          
  O          -7.988286            -4.822817            -5.665183            0            -0.597823    [8[6[1][1][1]][1]]                                          
  H          -7.892709            -4.108142            -5.012299            0             0.402573    [1[8[6]]]                                                   
  H          -6.388501            -4.259669            -7.003349            0             0.031932    [1[6[8][1][1]]]                                             
  H          -7.612256            -5.270702            -7.671501            0             0.031932    [1[6[8][1][1]]]                                             
  H          -7.996882            -3.590406            -7.298455            0             0.031932    [1[6[8][1][1]]]                                             
  C          -10.771748           -2.147596            -6.434548            1             0.099454    [6[8[1]][1][1][1]]                                          
  O          -11.023933           -3.535899            -6.412449            1            -0.597823    [8[6[1][1][1]][1]]                                          
  H          -10.411552           -3.910261            -5.800854            1             0.402573    [1[8[6]]]                                                   
  H          -11.190893           -1.574947            -7.314012            1             0.031932    [1[6[8][1][1]]]                                             
  H          -11.210914           -1.638381            -5.544509            1             0.031932    [1[6[8][1][1]]]                                             
  H          -9.661473            -1.957314            -6.485797            1             0.031932    [1[6[8][1][1]]]                                             
