12

  C           9.668061            -3.866281            -6.976412            0             0.099454    [6[8[1]][1][1][1]]                                          
  O           8.552818            -3.581596            -6.200644            0            -0.597823    [8[6[1][1][1]][1]]                                          
  H           8.019114            -2.985444            -6.708306            0             0.402573    [1[8[6]]]                                                   
  H           10.315615           -4.650284            -6.516347            0             0.031932    [1[6[8][1][1]]]                                             
  H           9.364548            -4.279350            -7.979582            0             0.031932    [1[6[8][1][1]]]                                             
  H           10.229104           -2.945901            -7.121084            0             0.031932    [1[6[8][1][1]]]                                             
  C           10.237845           -3.068959            -3.308223            1             0.099454    [6[8[1]][1][1][1]]                                          
  O           9.737158            -3.674142            -4.465276            1            -0.597823    [8[6[1][1][1]][1]]                                          
  H           9.453177            -4.568584            -4.169225            1             0.402573    [1[8[6]]]                                                   
  H           10.407160           -2.007675            -3.539728            1             0.031932    [1[6[8][1][1]]]                                             
  H           9.488849            -3.072322            -2.575428            1             0.031932    [1[6[8][1][1]]]                                             
  H           11.112346           -3.636049            -2.896684            1             0.031932    [1[6[8][1][1]]]                                             
