12

  C           1.360282            -4.777872            -0.154041            0             0.099454    [6[8[1]][1][1][1]]                                          
  O           0.112124            -4.454516             0.466890            0            -0.597823    [8[6[1][1][1]][1]]                                          
  H           0.255263            -3.645348             0.929075            0             0.402573    [1[8[6]]]                                                   
  H           1.579164            -4.006664            -0.829384            0             0.031932    [1[6[8][1][1]]]                                             
  H           2.089112            -4.804114             0.602860            0             0.031932    [1[6[8][1][1]]]                                             
  H           1.466500            -5.741228            -0.685839            0             0.031932    [1[6[8][1][1]]]                                             
  C          -2.315231            -6.857830             0.307560            1             0.099454    [6[8[1]][1][1][1]]                                          
  O          -2.542945            -5.554965            -0.144974            1            -0.597823    [8[6[1][1][1]][1]]                                          
  H          -1.707298            -5.106445            -0.070544            1             0.402573    [1[8[6]]]                                                   
  H          -1.393169            -7.004785             0.903639            1             0.031932    [1[6[8][1][1]]]                                             
  H          -3.215109            -7.202972             0.945529            1             0.031932    [1[6[8][1][1]]]                                             
  H          -2.260062            -7.423079            -0.631188            1             0.031932    [1[6[8][1][1]]]                                             
