12

  C          -5.176520            -0.642955             5.468790            0             0.099454    [6[8[1]][1][1][1]]                                          
  O          -4.038877            -1.295501             5.945422            0            -0.597823    [8[6[1][1][1]][1]]                                          
  H          -4.126203            -2.205438             5.650035            0             0.402573    [1[8[6]]]                                                   
  H          -5.286508            -0.774904             4.375683            0             0.031932    [1[6[8][1][1]]]                                             
  H          -6.105946            -0.911018             5.899308            0             0.031932    [1[6[8][1][1]]]                                             
  H          -5.090722             0.414521             5.747167            0             0.031932    [1[6[8][1][1]]]                                             
  C          -5.489523            -3.813304             8.215315            1             0.099454    [6[8[1]][1][1][1]]                                          
  O          -6.739284            -4.407885             8.109298            1            -0.597823    [8[6[1][1][1]][1]]                                          
  H          -7.413917            -3.714608             8.024810            1             0.402573    [1[8[6]]]                                                   
  H          -4.976029            -3.686453             7.194270            1             0.031932    [1[6[8][1][1]]]                                             
  H          -5.521442            -2.886207             8.754006            1             0.031932    [1[6[8][1][1]]]                                             
  H          -4.844538            -4.540704             8.737894            1             0.031932    [1[6[8][1][1]]]                                             
