12

  C          -5.192736            -2.225288             6.637700            0             0.099454    [6[8[1]][1][1][1]]                                          
  O          -5.408181            -1.507434             5.386835            0            -0.597823    [8[6[1][1][1]][1]]                                          
  H          -4.517370            -1.420161             5.041826            0             0.402573    [1[8[6]]]                                                   
  H          -4.838058            -1.544956             7.408872            0             0.031932    [1[6[8][1][1]]]                                             
  H          -6.004383            -2.688830             7.117625            0             0.031932    [1[6[8][1][1]]]                                             
  H          -4.338427            -2.918640             6.592779            0             0.031932    [1[6[8][1][1]]]                                             
  C          -10.124635           -1.578057             7.919502            1             0.099454    [6[8[1]][1][1][1]]                                          
  O          -10.879954           -0.939472             8.906649            1            -0.597823    [8[6[1][1][1]][1]]                                          
  H          -10.560020           -1.285727             9.750235            1             0.402573    [1[8[6]]]                                                   
  H          -10.631960           -1.522368             6.942224            1             0.031932    [1[6[8][1][1]]]                                             
  H          -9.127039            -1.203579             7.867189            1             0.031932    [1[6[8][1][1]]]                                             
  H          -10.069790           -2.645726             8.152109            1             0.031932    [1[6[8][1][1]]]                                             
