12

  C           4.368537             5.393558            -2.809895            0             0.099454    [6[8[1]][1][1][1]]                                          
  O           3.561577             5.915263            -3.882099            0            -0.597823    [8[6[1][1][1]][1]]                                          
  H           2.747769             6.147654            -3.483270            0             0.402573    [1[8[6]]]                                                   
  H           4.522148             6.098134            -2.062670            0             0.031932    [1[6[8][1][1]]]                                             
  H           3.985404             4.497609            -2.348490            0             0.031932    [1[6[8][1][1]]]                                             
  H           5.365098             5.152908            -3.121065            0             0.031932    [1[6[8][1][1]]]                                             
  C           0.577342             8.286108            -6.879825            1             0.099454    [6[8[1]][1][1][1]]                                          
  O          -0.082059             7.315492            -6.092842            1            -0.597823    [8[6[1][1][1]][1]]                                          
  H          -0.200547             6.592440            -6.761152            1             0.402573    [1[8[6]]]                                                   
  H           1.445892             7.839362            -7.293645            1             0.031932    [1[6[8][1][1]]]                                             
  H           0.031159             8.724131            -7.716760            1             0.031932    [1[6[8][1][1]]]                                             
  H           0.959594             9.097686            -6.252328            1             0.031932    [1[6[8][1][1]]]                                             
