12

  C           4.420336            -3.631376             1.742753            0             0.099454    [6[8[1]][1][1][1]]                                          
  O           3.162538            -4.207617             1.389367            0            -0.597823    [8[6[1][1][1]][1]]                                          
  H           2.908502            -4.657569             2.203867            0             0.402573    [1[8[6]]]                                                   
  H           4.810058            -2.966194             0.971924            0             0.031932    [1[6[8][1][1]]]                                             
  H           4.419981            -3.156620             2.638260            0             0.031932    [1[6[8][1][1]]]                                             
  H           5.257324            -4.385752             1.882703            0             0.031932    [1[6[8][1][1]]]                                             
  C           0.670655            -3.364613             3.881287            1             0.099454    [6[8[1]][1][1][1]]                                          
  O           1.611052            -4.392072             3.681750            1            -0.597823    [8[6[1][1][1]][1]]                                          
  H           1.133974            -5.221009             3.843205            1             0.402573    [1[8[6]]]                                                   
  H           1.203016            -2.432358             4.074149            1             0.031932    [1[6[8][1][1]]]                                             
  H          -0.108688            -3.330389             3.112099            1             0.031932    [1[6[8][1][1]]]                                             
  H           0.043285            -3.570151             4.731426            1             0.031932    [1[6[8][1][1]]]                                             
