12

  C          -1.267022             2.911247            -8.681025            0             0.099454    [6[8[1]][1][1][1]]                                          
  O          -0.268756             3.705032            -8.117566            0            -0.597823    [8[6[1][1][1]][1]]                                          
  H           0.171322             4.219488            -8.783694            0             0.402573    [1[8[6]]]                                                   
  H          -1.871073             2.471587            -7.931495            0             0.031932    [1[6[8][1][1]]]                                             
  H          -1.980089             3.506477            -9.290469            0             0.031932    [1[6[8][1][1]]]                                             
  H          -0.813840             2.129485            -9.302339            0             0.031932    [1[6[8][1][1]]]                                             
  C           2.837346             2.913917            -6.106676            1             0.099454    [6[8[1]][1][1][1]]                                          
  O           1.786846             3.860540            -6.142830            1            -0.597823    [8[6[1][1][1]][1]]                                          
  H           1.204440             3.769959            -6.903453            1             0.402573    [1[8[6]]]                                                   
  H           3.319303             2.733692            -7.068589            1             0.031932    [1[6[8][1][1]]]                                             
  H           3.660161             3.286006            -5.438717            1             0.031932    [1[6[8][1][1]]]                                             
  H           2.431404             1.980087            -5.759508            1             0.031932    [1[6[8][1][1]]]                                             
