12

  C           3.035354            -3.809666            -2.544556            0             0.099454    [6[8[1]][1][1][1]]                                          
  O           1.766696            -4.109608            -3.176374            0            -0.597823    [8[6[1][1][1]][1]]                                          
  H           1.607045            -3.612000            -3.997328            0             0.402573    [1[8[6]]]                                                   
  H           3.106638            -4.114295            -1.499011            0             0.031932    [1[6[8][1][1]]]                                             
  H           3.808947            -4.262466            -3.092819            0             0.031932    [1[6[8][1][1]]]                                             
  H           3.163127            -2.658329            -2.601287            0             0.031932    [1[6[8][1][1]]]                                             
  C          -0.128275            -6.062535            -0.900614            1             0.099454    [6[8[1]][1][1][1]]                                          
  O          -0.606964            -5.157985            -1.973514            1            -0.597823    [8[6[1][1][1]][1]]                                          
  H           0.108074            -4.792227            -2.433733            1             0.402573    [1[8[6]]]                                                   
  H           0.831254            -5.700204            -0.480660            1             0.031932    [1[6[8][1][1]]]                                             
  H          -0.786581            -5.973585            -0.031520            1             0.031932    [1[6[8][1][1]]]                                             
  H          -0.009943            -7.163101            -1.222889            1             0.031932    [1[6[8][1][1]]]                                             
