12

  C          -9.116109             5.828608            -3.149760            0             0.099454    [6[8[1]][1][1][1]]                                          
  O          -8.666366             7.180685            -3.469790            0            -0.597823    [8[6[1][1][1]][1]]                                          
  H          -8.814491             7.394887            -4.363041            0             0.402573    [1[8[6]]]                                                   
  H          -9.459913             5.864401            -2.148955            0             0.031932    [1[6[8][1][1]]]                                             
  H          -9.944737             5.470337            -3.807818            0             0.031932    [1[6[8][1][1]]]                                             
  H          -8.309017             5.140862            -3.188582            0             0.031932    [1[6[8][1][1]]]                                             
  C          -5.584144             4.216774            -2.974492            1             0.099454    [6[8[1]][1][1][1]]                                          
  O          -5.488972             2.817848            -2.786760            1            -0.597823    [8[6[1][1][1]][1]]                                          
  H          -4.762711             2.523080            -2.276914            1             0.402573    [1[8[6]]]                                                   
  H          -4.592497             4.686853            -2.957562            1             0.031932    [1[6[8][1][1]]]                                             
  H          -6.122841             4.609606            -3.841734            1             0.031932    [1[6[8][1][1]]]                                             
  H          -6.019252             4.673570            -2.114456            1             0.031932    [1[6[8][1][1]]]                                             
