12

  C           5.849089             5.190941             8.767723            0             0.099454    [6[8[1]][1][1][1]]                                          
  O           4.550791             5.140373             9.206326            0            -0.597823    [8[6[1][1][1]][1]]                                          
  H           4.169133             6.010848             9.327686            0             0.402573    [1[8[6]]]                                                   
  H           6.534993             5.393492             9.597090            0             0.031932    [1[6[8][1][1]]]                                             
  H           6.229892             4.328461             8.286398            0             0.031932    [1[6[8][1][1]]]                                             
  H           6.007129             6.055441             8.094881            0             0.031932    [1[6[8][1][1]]]                                             
  C           3.235561             4.551749             5.934133            1             0.099454    [6[8[1]][1][1][1]]                                          
  O           2.594535             4.358241             7.218356            1            -0.597823    [8[6[1][1][1]][1]]                                          
  H           3.030707             4.934264             7.863506            1             0.402573    [1[8[6]]]                                                   
  H           4.267933             4.089265             5.970276            1             0.031932    [1[6[8][1][1]]]                                             
  H           2.610780             4.061850             5.130225            1             0.031932    [1[6[8][1][1]]]                                             
  H           3.285283             5.611217             5.737462            1             0.031932    [1[6[8][1][1]]]                                             
