12

  C           6.485865             6.830318             0.457606            0             0.099454    [6[8[1]][1][1][1]]                                          
  O           6.958456             6.355031            -0.794069            0            -0.597823    [8[6[1][1][1]][1]]                                          
  H           7.907226             6.370384            -0.741623            0             0.402573    [1[8[6]]]                                                   
  H           6.882538             7.854793             0.749982            0             0.031932    [1[6[8][1][1]]]                                             
  H           5.409756             6.912721             0.368214            0             0.031932    [1[6[8][1][1]]]                                             
  H           6.865832             6.186334             1.267891            0             0.031932    [1[6[8][1][1]]]                                             
  C           8.513817             3.675508            -0.383568            1             0.099454    [6[8[1]][1][1][1]]                                          
  O           9.143687             3.578404             0.864481            1            -0.597823    [8[6[1][1][1]][1]]                                          
  H           9.463190             2.722025             0.901324            1             0.402573    [1[8[6]]]                                                   
  H           8.877662             2.865182            -1.066605            1             0.031932    [1[6[8][1][1]]]                                             
  H           7.428917             3.486082            -0.322136            1             0.031932    [1[6[8][1][1]]]                                             
  H           8.817236             4.613234            -0.872877            1             0.031932    [1[6[8][1][1]]]                                             
