12

  C          -7.916342            -6.777899            -3.497241            0             0.099454    [6[8[1]][1][1][1]]                                          
  O          -8.592063            -7.645050            -2.610539            0            -0.597823    [8[6[1][1][1]][1]]                                          
  H          -8.289805            -7.563570            -1.732779            0             0.402573    [1[8[6]]]                                                   
  H          -6.857783            -7.080269            -3.642114            0             0.031932    [1[6[8][1][1]]]                                             
  H          -8.305381            -6.748343            -4.490312            0             0.031932    [1[6[8][1][1]]]                                             
  H          -8.036397            -5.738256            -3.130291            0             0.031932    [1[6[8][1][1]]]                                             
  C          -4.097627            -10.847332           -4.777441            1             0.099454    [6[8[1]][1][1][1]]                                          
  O          -5.100593            -10.002243           -4.339253            1            -0.597823    [8[6[1][1][1]][1]]                                          
  H          -5.156227            -10.011735           -3.378805            1             0.402573    [1[8[6]]]                                                   
  H          -3.200352            -10.727107           -4.173279            1             0.031932    [1[6[8][1][1]]]                                             
  H          -4.469498            -11.846992           -4.719496            1             0.031932    [1[6[8][1][1]]]                                             
  H          -3.941931            -10.717463           -5.809068            1             0.031932    [1[6[8][1][1]]]                                             
