12

  C          -4.029221             8.344015             5.610913            0             0.099454    [6[8[1]][1][1][1]]                                          
  O          -2.999871             7.977746             4.667712            0            -0.597823    [8[6[1][1][1]][1]]                                          
  H          -3.310125             8.320182             3.789893            0             0.402573    [1[8[6]]]                                                   
  H          -3.622109             8.473960             6.626864            0             0.031932    [1[6[8][1][1]]]                                             
  H          -4.597087             9.250479             5.314208            0             0.031932    [1[6[8][1][1]]]                                             
  H          -4.851451             7.575020             5.727861            0             0.031932    [1[6[8][1][1]]]                                             
  C          -0.241667             8.855129             6.504955            1             0.099454    [6[8[1]][1][1][1]]                                          
  O           0.003160             8.985826             5.138943            1            -0.597823    [8[6[1][1][1]][1]]                                          
  H          -0.815138             9.115915             4.700429            1             0.402573    [1[8[6]]]                                                   
  H          -1.161225             8.348675             6.738335            1             0.031932    [1[6[8][1][1]]]                                             
  H           0.546254             8.269358             7.009560            1             0.031932    [1[6[8][1][1]]]                                             
  H          -0.221386             9.829478             6.973121            1             0.031932    [1[6[8][1][1]]]                                             
