12

  C           8.138163             2.013779             8.440012            0             0.099454    [6[8[1]][1][1][1]]                                          
  O           8.449880             2.296050             7.073773            0            -0.597823    [8[6[1][1][1]][1]]                                          
  H           8.958610             1.573154             6.754095            0             0.402573    [1[8[6]]]                                                   
  H           7.680784             2.922407             8.860548            0             0.031932    [1[6[8][1][1]]]                                             
  H           7.458505             1.109173             8.484702            0             0.031932    [1[6[8][1][1]]]                                             
  H           9.035666             1.771950             8.988343            0             0.031932    [1[6[8][1][1]]]                                             
  C           4.430335             5.512395             8.657637            1             0.099454    [6[8[1]][1][1][1]]                                          
  O           4.405367             6.904607             8.601094            1            -0.597823    [8[6[1][1][1]][1]]                                          
  H           5.340159             7.220050             8.776465            1             0.402573    [1[8[6]]]                                                   
  H           4.978902             5.137231             9.546736            1             0.031932    [1[6[8][1][1]]]                                             
  H           3.450667             5.052634             8.684871            1             0.031932    [1[6[8][1][1]]]                                             
  H           4.890700             5.123783             7.757097            1             0.031932    [1[6[8][1][1]]]                                             
