12

  C          -2.778734            -2.412544             8.481475            0             0.099454    [6[8[1]][1][1][1]]                                          
  O          -2.200614            -3.449927             9.311250            0            -0.597823    [8[6[1][1][1]][1]]                                          
  H          -2.908037            -4.104227             9.150828            0             0.402573    [1[8[6]]]                                                   
  H          -2.317771            -2.395870             7.561759            0             0.031932    [1[6[8][1][1]]]                                             
  H          -3.824809            -2.518425             8.302194            0             0.031932    [1[6[8][1][1]]]                                             
  H          -2.604314            -1.482273             8.977434            0             0.031932    [1[6[8][1][1]]]                                             
  C           0.394108            -5.205522             10.558296           1             0.099454    [6[8[1]][1][1][1]]                                          
  O           0.573753            -4.235811             9.557318            1            -0.597823    [8[6[1][1][1]][1]]                                          
  H          -0.243373            -4.142558             9.060410            1             0.402573    [1[8[6]]]                                                   
  H          -0.667313            -5.047230             11.001182           1             0.031932    [1[6[8][1][1]]]                                             
  H           0.368586            -6.303852             10.296663           1             0.031932    [1[6[8][1][1]]]                                             
  H           1.165742            -5.092801             11.336747           1             0.031932    [1[6[8][1][1]]]                                             
