6

  C          -0.339806            -1.681676            -4.646204            0             0.089063    [6[8[1]][1][1][1]]                                          
  O           0.216350            -2.979707            -4.816244            0            -0.604789    [8[6[1][1][1]][1]]                                          
  H           0.067145            -3.417743            -3.953351            0             0.406250    [1[8[6]]]                                                   
  H          -0.972488            -1.577595            -3.724598            0             0.036492    [1[6[8][1][1]]]                                             
  H           0.455411            -0.963213            -4.730663            0             0.036492    [1[6[8][1][1]]]                                             
  H          -1.007386            -1.425454            -5.485194            0             0.036492    [1[6[8][1][1]]]                                             
