12

  C          -6.008489            -4.587720            -4.525131            0             0.099454    [6[8[1]][1][1][1]]                                          
  O          -5.657151            -3.490434            -5.323309            0            -0.597823    [8[6[1][1][1]][1]]                                          
  H          -4.759430            -3.178681            -5.161051            0             0.402573    [1[8[6]]]                                                   
  H          -6.094564            -4.278882            -3.454936            0             0.031932    [1[6[8][1][1]]]                                             
  H          -6.943216            -4.900228            -4.978512            0             0.031932    [1[6[8][1][1]]]                                             
  H          -5.366793            -5.404057            -4.591604            0             0.031932    [1[6[8][1][1]]]                                             
  C          -2.199423            -3.220114            -4.600146            1             0.099454    [6[8[1]][1][1][1]]                                          
  O          -2.828646            -2.675775            -5.718328            1            -0.597823    [8[6[1][1][1]][1]]                                          
  H          -2.224699            -2.440707            -6.411759            1             0.402573    [1[8[6]]]                                                   
  H          -2.777657            -4.032801            -4.099867            1             0.031932    [1[6[8][1][1]]]                                             
  H          -1.242190            -3.615599            -4.941980            1             0.031932    [1[6[8][1][1]]]                                             
  H          -1.968914            -2.377201            -3.845331            1             0.031932    [1[6[8][1][1]]]                                             
