12

  C          -4.658780            -2.037883             7.649658            0             0.099454    [6[8[1]][1][1][1]]                                          
  O          -5.337638            -1.572166             6.540238            0            -0.597823    [8[6[1][1][1]][1]]                                          
  H          -6.235660            -1.469603             6.901389            0             0.402573    [1[8[6]]]                                                   
  H          -3.612432            -1.652803             7.614765            0             0.031932    [1[6[8][1][1]]]                                             
  H          -5.188026            -1.588476             8.460927            0             0.031932    [1[6[8][1][1]]]                                             
  H          -4.629709            -3.094023             7.716798            0             0.031932    [1[6[8][1][1]]]                                             
  C          -1.923196            -1.868327             4.730902            1             0.099454    [6[8[1]][1][1][1]]                                          
  O          -0.792962            -0.994753             5.100044            1            -0.597823    [8[6[1][1][1]][1]]                                          
  H          -1.337108            -0.275077             5.466383            1             0.402573    [1[8[6]]]                                                   
  H          -1.945100            -1.997306             3.679924            1             0.031932    [1[6[8][1][1]]]                                             
  H          -1.941094            -2.839486             5.228119            1             0.031932    [1[6[8][1][1]]]                                             
  H          -2.894693            -1.394700             4.995180            1             0.031932    [1[6[8][1][1]]]                                             
