12

  C           5.213601            -6.424230             1.445439            0             0.099454    [6[8[1]][1][1][1]]                                          
  O           5.630218            -5.208946             2.075847            0            -0.597823    [8[6[1][1][1]][1]]                                          
  H           5.563530            -4.576802             1.354313            0             0.402573    [1[8[6]]]                                                   
  H           5.329758            -7.331916             2.140380            0             0.031932    [1[6[8][1][1]]]                                             
  H           4.144093            -6.377885             1.182249            0             0.031932    [1[6[8][1][1]]]                                             
  H           5.866397            -6.714165             0.524728            0             0.031932    [1[6[8][1][1]]]                                             
  C           8.409739            -2.753562             1.251528            1             0.099454    [6[8[1]][1][1][1]]                                          
  O           9.660958            -3.028981             0.606621            1            -0.597823    [8[6[1][1][1]][1]]                                          
  H           10.358320           -2.491898             1.031269            1             0.402573    [1[8[6]]]                                                   
  H           8.498808            -2.476518             2.307472            1             0.031932    [1[6[8][1][1]]]                                             
  H           7.906243            -1.899116             0.813379            1             0.031932    [1[6[8][1][1]]]                                             
  H           7.694675            -3.587482             1.159274            1             0.031932    [1[6[8][1][1]]]                                             
