12

  C           7.010154            -0.039045            -9.433605            0             0.099454    [6[8[1]][1][1][1]]                                          
  O           8.270154             0.587972            -9.839625            0            -0.597823    [8[6[1][1][1]][1]]                                          
  H           8.487820             0.297724            -10.722834           0             0.402573    [1[8[6]]]                                                   
  H           6.245528             0.058010            -10.219982           0             0.031932    [1[6[8][1][1]]]                                             
  H           7.161661            -1.110750            -9.489318            0             0.031932    [1[6[8][1][1]]]                                             
  H           6.696794             0.214839            -8.443639            0             0.031932    [1[6[8][1][1]]]                                             
  C           6.116449            -2.829464            -5.620753            1             0.099454    [6[8[1]][1][1][1]]                                          
  O           6.255045            -2.353373            -6.959713            1            -0.597823    [8[6[1][1][1]][1]]                                          
  H           7.130615            -2.363186            -7.284429            1             0.402573    [1[8[6]]]                                                   
  H           7.038531            -3.072071            -5.237766            1             0.031932    [1[6[8][1][1]]]                                             
  H           5.737454            -2.054060            -4.932750            1             0.031932    [1[6[8][1][1]]]                                             
  H           5.437193            -3.696490            -5.586526            1             0.031932    [1[6[8][1][1]]]                                             
