12

  C           4.799980             6.006494            -5.167319            0             0.099454    [6[8[1]][1][1][1]]                                          
  O           3.951177             6.217455            -4.023773            0            -0.597823    [8[6[1][1][1]][1]]                                          
  H           3.955789             5.362684            -3.580391            0             0.402573    [1[8[6]]]                                                   
  H           4.974411             6.973716            -5.687132            0             0.031932    [1[6[8][1][1]]]                                             
  H           5.733022             5.639043            -4.789739            0             0.031932    [1[6[8][1][1]]]                                             
  H           4.363213             5.250652            -5.814487            0             0.031932    [1[6[8][1][1]]]                                             
  C           4.705725             8.901838            -1.620653            1             0.099454    [6[8[1]][1][1][1]]                                          
  O           3.504029             8.280824            -2.084138            1            -0.597823    [8[6[1][1][1]][1]]                                          
  H           3.786292             7.682769            -2.794021            1             0.402573    [1[8[6]]]                                                   
  H           5.179210             9.653084            -2.296664            1             0.031932    [1[6[8][1][1]]]                                             
  H           4.572387             9.390912            -0.647101            1             0.031932    [1[6[8][1][1]]]                                             
  H           5.505550             8.207702            -1.522932            1             0.031932    [1[6[8][1][1]]]                                             
