12

  C          -7.703937             4.864431             7.544231            0             0.099454    [6[8[1]][1][1][1]]                                          
  O          -8.044865             6.226566             7.754114            0            -0.597823    [8[6[1][1][1]][1]]                                          
  H          -8.552644             6.657544             7.051836            0             0.402573    [1[8[6]]]                                                   
  H          -8.567473             4.275343             7.272627            0             0.031932    [1[6[8][1][1]]]                                             
  H          -6.941389             4.675493             6.753926            0             0.031932    [1[6[8][1][1]]]                                             
  H          -7.290078             4.411499             8.488377            0             0.031932    [1[6[8][1][1]]]                                             
  C          -3.954571             1.031341             8.637130            1             0.099454    [6[8[1]][1][1][1]]                                          
  O          -4.137439             0.344874             9.855359            1            -0.597823    [8[6[1][1][1]][1]]                                          
  H          -3.949759             0.977031             10.528426           1             0.402573    [1[8[6]]]                                                   
  H          -2.901997             1.319992             8.390661            1             0.031932    [1[6[8][1][1]]]                                             
  H          -4.152900             0.485042             7.742376            1             0.031932    [1[6[8][1][1]]]                                             
  H          -4.483520             2.000023             8.705440            1             0.031932    [1[6[8][1][1]]]                                             
