12

  C           3.579629             8.937106             8.769352            0             0.099454    [6[8[1]][1][1][1]]                                          
  O           4.024011             9.179831             7.436745            0            -0.597823    [8[6[1][1][1]][1]]                                          
  H           4.437202             8.392285             7.075693            0             0.402573    [1[8[6]]]                                                   
  H           3.770762             9.820385             9.402602            0             0.031932    [1[6[8][1][1]]]                                             
  H           2.595479             8.630090             8.898085            0             0.031932    [1[6[8][1][1]]]                                             
  H           4.210503             8.153010             9.170169            0             0.031932    [1[6[8][1][1]]]                                             
  C           7.552119             9.311828             7.302262            1             0.099454    [6[8[1]][1][1][1]]                                          
  O           8.424865             8.236873             7.635050            1            -0.597823    [8[6[1][1][1]][1]]                                          
  H           8.038297             7.903594             8.514994            1             0.402573    [1[8[6]]]                                                   
  H           6.469145             9.194875             7.344775            1             0.031932    [1[6[8][1][1]]]                                             
  H           7.737204             10.092626            8.002545            1             0.031932    [1[6[8][1][1]]]                                             
  H           7.867313             9.844927             6.504650            1             0.031932    [1[6[8][1][1]]]                                             
