12

  C           0.660958             5.234501             6.568248            0             0.099454    [6[8[1]][1][1][1]]                                          
  O           1.793988             4.917370             7.403906            0            -0.597823    [8[6[1][1][1]][1]]                                          
  H           1.654328             3.934204             7.551554            0             0.402573    [1[8[6]]]                                                   
  H           0.805839             4.909714             5.553898            0             0.031932    [1[6[8][1][1]]]                                             
  H          -0.204570             4.628391             6.807331            0             0.031932    [1[6[8][1][1]]]                                             
  H           0.475641             6.293078             6.607980            0             0.031932    [1[6[8][1][1]]]                                             
  C           3.046509             2.841891             9.192081            1             0.099454    [6[8[1]][1][1][1]]                                          
  O           2.285587             2.160725             8.257124            1            -0.597823    [8[6[1][1][1]][1]]                                          
  H           2.375504             1.211638             8.317500            1             0.402573    [1[8[6]]]                                                   
  H           2.774781             2.634225             10.203713           1             0.031932    [1[6[8][1][1]]]                                             
  H           4.106382             2.650446             9.060975            1             0.031932    [1[6[8][1][1]]]                                             
  H           2.831567             3.885847             9.093850            1             0.031932    [1[6[8][1][1]]]                                             
