12

  C          -10.737285           -10.905899           -8.526970            0             0.099454    [6[8[1]][1][1][1]]                                          
  O          -11.491148           -9.799804            -8.017945            0            -0.597823    [8[6[1][1][1]][1]]                                          
  H          -11.618391           -9.202291            -8.727251            0             0.402573    [1[8[6]]]                                                   
  H          -11.160848           -11.255895           -9.449243            0             0.031932    [1[6[8][1][1]]]                                             
  H          -9.693300            -10.777547           -8.716372            0             0.031932    [1[6[8][1][1]]]                                             
  H          -10.901061           -11.684010           -7.796133            0             0.031932    [1[6[8][1][1]]]                                             
  C          -9.917695            -6.771640            -11.480742           1             0.099454    [6[8[1]][1][1][1]]                                          
  O          -10.379273           -7.468041            -10.321750           1            -0.597823    [8[6[1][1][1]][1]]                                          
  H          -10.399778           -6.797954            -9.638099            1             0.402573    [1[8[6]]]                                                   
  H          -9.683152            -7.503796            -12.254542           1             0.031932    [1[6[8][1][1]]]                                             
  H          -10.721337           -6.171460            -11.894603           1             0.031932    [1[6[8][1][1]]]                                             
  H          -9.119196            -6.020222            -11.364647           1             0.031932    [1[6[8][1][1]]]                                             
