12

  C          -7.165838             1.970965            -4.316710            0             0.099454    [6[8[1]][1][1][1]]                                          
  O          -8.140504             2.659230            -3.460284            0            -0.597823    [8[6[1][1][1]][1]]                                          
  H          -7.664392             2.899198            -2.666859            0             0.402573    [1[8[6]]]                                                   
  H          -6.972118             0.987659            -3.975152            0             0.031932    [1[6[8][1][1]]]                                             
  H          -7.564475             1.801484            -5.267749            0             0.031932    [1[6[8][1][1]]]                                             
  H          -6.156702             2.463355            -4.387189            0             0.031932    [1[6[8][1][1]]]                                             
  C          -8.589574             6.130416            -1.375605            1             0.099454    [6[8[1]][1][1][1]]                                          
  O          -9.930195             6.243223            -1.774311            1            -0.597823    [8[6[1][1][1]][1]]                                          
  H          -10.297952            5.420813            -1.545800            1             0.402573    [1[8[6]]]                                                   
  H          -8.562136             5.487636            -0.475464            1             0.031932    [1[6[8][1][1]]]                                             
  H          -7.952221             5.669713            -2.124242            1             0.031932    [1[6[8][1][1]]]                                             
  H          -8.029760             6.994471            -1.218246            1             0.031932    [1[6[8][1][1]]]                                             
