12

  C          -3.902687            -2.047055            -9.767899            0             0.099454    [6[8[1]][1][1][1]]                                          
  O          -3.783327            -2.023162            -8.364810            0            -0.597823    [8[6[1][1][1]][1]]                                          
  H          -4.423023            -2.616315            -8.035842            0             0.402573    [1[8[6]]]                                                   
  H          -3.310654            -1.327274            -10.263219           0             0.031932    [1[6[8][1][1]]]                                             
  H          -3.476127            -2.942526            -10.229169           0             0.031932    [1[6[8][1][1]]]                                             
  H          -4.961791            -1.855243            -10.025167           0             0.031932    [1[6[8][1][1]]]                                             
  C          -0.151003            -2.035609            -8.821723            1             0.099454    [6[8[1]][1][1][1]]                                          
  O          -0.924824            -1.536299            -7.733373            1            -0.597823    [8[6[1][1][1]][1]]                                          
  H          -1.828442            -1.692329            -7.979716            1             0.402573    [1[8[6]]]                                                   
  H          -0.282953            -1.539425            -9.797442            1             0.031932    [1[6[8][1][1]]]                                             
  H           0.915134            -1.846635            -8.655497            1             0.031932    [1[6[8][1][1]]]                                             
  H          -0.344206            -3.076921            -8.978535            1             0.031932    [1[6[8][1][1]]]                                             
