12

  C          -10.286534            10.673882            3.793278            0             0.099454    [6[8[1]][1][1][1]]                                          
  O          -8.910454             10.924553            3.478608            0            -0.597823    [8[6[1][1][1]][1]]                                          
  H          -8.508359             11.084379            4.307705            0             0.402573    [1[8[6]]]                                                   
  H          -10.933284            10.835216            2.948469            0             0.031932    [1[6[8][1][1]]]                                             
  H          -10.407705            9.686016             4.147224            0             0.031932    [1[6[8][1][1]]]                                             
  H          -10.547487            11.323331            4.581449            0             0.031932    [1[6[8][1][1]]]                                             
  C          -7.055349             10.135915            6.214749            1             0.099454    [6[8[1]][1][1][1]]                                          
  O          -7.405501             11.491460            6.002087            1            -0.597823    [8[6[1][1][1]][1]]                                          
  H          -7.257205             12.054520            6.777185            1             0.402573    [1[8[6]]]                                                   
  H          -6.416464             9.677373             5.397483            1             0.031932    [1[6[8][1][1]]]                                             
  H          -6.474330             10.030082            7.137446            1             0.031932    [1[6[8][1][1]]]                                             
  H          -7.946947             9.449948             6.394496            1             0.031932    [1[6[8][1][1]]]                                             
