12

  C          -9.041128             7.108343             4.678222            0             0.099454    [6[8[1]][1][1][1]]                                          
  O          -8.063156             7.959100             5.297418            0            -0.597823    [8[6[1][1][1]][1]]                                          
  H          -8.602774             8.629575             5.673982            0             0.402573    [1[8[6]]]                                                   
  H          -8.511217             6.497852             4.034014            0             0.031932    [1[6[8][1][1]]]                                             
  H          -9.565376             6.519665             5.399782            0             0.031932    [1[6[8][1][1]]]                                             
  H          -9.755183             7.740047             4.094476            0             0.031932    [1[6[8][1][1]]]                                             
  C          -4.684964             9.543818             5.077523            1             0.099454    [6[8[1]][1][1][1]]                                          
  O          -4.916414             8.767088             6.234499            1            -0.597823    [8[6[1][1][1]][1]]                                          
  H          -5.675565             8.157495             5.938927            1             0.402573    [1[8[6]]]                                                   
  H          -3.998904             10.359055            5.346054            1             0.031932    [1[6[8][1][1]]]                                             
  H          -4.087212             8.875435             4.456311            1             0.031932    [1[6[8][1][1]]]                                             
  H          -5.571175             9.865341             4.530724            1             0.031932    [1[6[8][1][1]]]                                             
