12

  C          -6.417568             5.724779            -9.595401            0             0.099454    [6[8[1]][1][1][1]]                                          
  O          -6.496729             5.320561            -10.985951           0            -0.597823    [8[6[1][1][1]][1]]                                          
  H          -5.837591             4.593481            -11.037787           0             0.402573    [1[8[6]]]                                                   
  H          -5.394733             5.521762            -9.256778            0             0.031932    [1[6[8][1][1]]]                                             
  H          -6.775722             6.772513            -9.423022            0             0.031932    [1[6[8][1][1]]]                                             
  H          -7.171860             5.219922            -8.997641            0             0.031932    [1[6[8][1][1]]]                                             
  C          -8.073983             1.833345            -9.588540            1             0.099454    [6[8[1]][1][1][1]]                                          
  O          -7.130411             2.584063            -8.864001            1            -0.597823    [8[6[1][1][1]][1]]                                          
  H          -6.456292             1.998703            -8.551465            1             0.402573    [1[8[6]]]                                                   
  H          -8.235140             0.778497            -9.290424            1             0.031932    [1[6[8][1][1]]]                                             
  H          -9.112701             2.244961            -9.539074            1             0.031932    [1[6[8][1][1]]]                                             
  H          -7.848559             1.591181            -10.633758           1             0.031932    [1[6[8][1][1]]]                                             
