12

  C           0.458656            -0.930274            -4.011846            0             0.099454    [6[8[1]][1][1][1]]                                          
  O           1.515919            -0.989407            -3.097757            0            -0.597823    [8[6[1][1][1]][1]]                                          
  H           2.343066            -1.128490            -3.561394            0             0.402573    [1[8[6]]]                                                   
  H           0.659038            -0.054227            -4.714166            0             0.031932    [1[6[8][1][1]]]                                             
  H           0.496070            -1.799020            -4.676867            0             0.031932    [1[6[8][1][1]]]                                             
  H          -0.554769            -0.926448            -3.628725            0             0.031932    [1[6[8][1][1]]]                                             
  C           3.342125            -5.023051            -5.318537            1             0.099454    [6[8[1]][1][1][1]]                                          
  O           2.887319            -4.274273            -6.430763            1            -0.597823    [8[6[1][1][1]][1]]                                          
  H           3.572304            -4.139006            -7.111828            1             0.402573    [1[8[6]]]                                                   
  H           4.340022            -4.689167            -5.002145            1             0.031932    [1[6[8][1][1]]]                                             
  H           2.573758            -5.014004            -4.521684            1             0.031932    [1[6[8][1][1]]]                                             
  H           3.464078            -6.125490            -5.575400            1             0.031932    [1[6[8][1][1]]]                                             
