12

  C           9.708126             4.409353             0.483278            0             0.099454    [6[8[1]][1][1][1]]                                          
  O           9.397154             5.732201             0.160132            0            -0.597823    [8[6[1][1][1]][1]]                                          
  H           8.663138             5.983200             0.719727            0             0.402573    [1[8[6]]]                                                   
  H           10.028389            4.405167             1.551040            0             0.031932    [1[6[8][1][1]]]                                             
  H           8.824600             3.766350             0.310637            0             0.031932    [1[6[8][1][1]]]                                             
  H           10.640476            3.975550             0.074200            0             0.031932    [1[6[8][1][1]]]                                             
  C           6.362767             6.570693             1.856183            1             0.099454    [6[8[1]][1][1][1]]                                          
  O           7.477303             5.865457             2.256548            1            -0.597823    [8[6[1][1][1]][1]]                                          
  H           7.355264             5.746036             3.215383            1             0.402573    [1[8[6]]]                                                   
  H           6.230040             7.373288             2.453346            1             0.031932    [1[6[8][1][1]]]                                             
  H           6.401769             6.890055             0.787321            1             0.031932    [1[6[8][1][1]]]                                             
  H           5.589501             5.954421             1.999027            1             0.031932    [1[6[8][1][1]]]                                             
