6
Coordinates from ORCA-job 7_geo_opt
  C   3.01128657826967     -1.18106200189335      0.59854339139947
  O   4.39438713958167     -1.12642878395186      0.87552185554294
  H   4.77198966072995     -0.37839340585770      0.41218760860591
  H   2.80670844791391     -1.31889190361654     -0.46934934469169
  H   2.61134729028541     -2.04022347791545      1.13599297457225
  H   2.48663788321939     -0.28376142676510      0.94629351457113
