12

  C           4.586938             5.992063             7.361897            0             0.099454    [6[8[1]][1][1][1]]                                          
  O           3.991304             7.242448             7.064388            0            -0.597823    [8[6[1][1][1]][1]]                                          
  H           3.451555             7.473665             7.824999            0             0.402573    [1[8[6]]]                                                   
  H           4.995584             5.497128             6.447825            0             0.031932    [1[6[8][1][1]]]                                             
  H           5.383443             6.062640             8.101021            0             0.031932    [1[6[8][1][1]]]                                             
  H           3.956783             5.324596             7.863803            0             0.031932    [1[6[8][1][1]]]                                             
  C           2.602925             9.182474             4.994307            1             0.099454    [6[8[1]][1][1][1]]                                          
  O           2.671112             7.829710             4.564984            1            -0.597823    [8[6[1][1][1]][1]]                                          
  H           3.211640             7.419230             5.241456            1             0.402573    [1[8[6]]]                                                   
  H           1.881376             9.347039             5.826246            1             0.031932    [1[6[8][1][1]]]                                             
  H           3.617656             9.540769             5.392612            1             0.031932    [1[6[8][1][1]]]                                             
  H           2.227002             9.782943             4.191151            1             0.031932    [1[6[8][1][1]]]                                             
