12

  C           6.555521             2.875121             5.302771            0             0.099454    [6[8[1]][1][1][1]]                                          
  O           5.960526             2.912413             6.541502            0            -0.597823    [8[6[1][1][1]][1]]                                          
  H           5.034107             2.707951             6.433674            0             0.402573    [1[8[6]]]                                                   
  H           6.880396             3.815636             4.981021            0             0.031932    [1[6[8][1][1]]]                                             
  H           7.546284             2.419773             5.320943            0             0.031932    [1[6[8][1][1]]]                                             
  H           5.929050             2.395693             4.578541            0             0.031932    [1[6[8][1][1]]]                                             
  C           5.754893             6.097062             8.882843            1             0.099454    [6[8[1]][1][1][1]]                                          
  O           5.269778             6.465289             10.118696           1            -0.597823    [8[6[1][1][1]][1]]                                          
  H           5.525233             7.396811             10.175203           1             0.402573    [1[8[6]]]                                                   
  H           5.549808             5.035463             8.641466            1             0.031932    [1[6[8][1][1]]]                                             
  H           5.309479             6.610149             8.022095            1             0.031932    [1[6[8][1][1]]]                                             
  H           6.883333             6.227854             8.796637            1             0.031932    [1[6[8][1][1]]]                                             
