12

  C          -3.305806             2.350428             7.299162            0             0.099454    [6[8[1]][1][1][1]]                                          
  O          -3.492513             3.717809             7.040741            0            -0.597823    [8[6[1][1][1]][1]]                                          
  H          -2.856496             4.083690             6.472353            0             0.402573    [1[8[6]]]                                                   
  H          -3.657650             1.660644             6.502851            0             0.031932    [1[6[8][1][1]]]                                             
  H          -2.260319             2.065325             7.468942            0             0.031932    [1[6[8][1][1]]]                                             
  H          -3.889548             1.933458             8.115113            0             0.031932    [1[6[8][1][1]]]                                             
  C          -5.918653             5.943443             7.309393            1             0.099454    [6[8[1]][1][1][1]]                                          
  O          -5.397078             5.313272             8.504120            1            -0.597823    [8[6[1][1][1]][1]]                                          
  H          -4.765617             4.649269             8.200209            1             0.402573    [1[8[6]]]                                                   
  H          -6.454968             6.862204             7.586693            1             0.031932    [1[6[8][1][1]]]                                             
  H          -5.096273             6.137884             6.604447            1             0.031932    [1[6[8][1][1]]]                                             
  H          -6.605557             5.235356             6.785779            1             0.031932    [1[6[8][1][1]]]                                             
