12

  C           5.213601            -6.424230             1.445439            0             0.099454    [6[8[1]][1][1][1]]                                          
  O           5.630218            -5.208946             2.075847            0            -0.597823    [8[6[1][1][1]][1]]                                          
  H           5.563530            -4.576802             1.354313            0             0.402573    [1[8[6]]]                                                   
  H           5.329758            -7.331916             2.140380            0             0.031932    [1[6[8][1][1]]]                                             
  H           4.144093            -6.377885             1.182249            0             0.031932    [1[6[8][1][1]]]                                             
  H           5.866397            -6.714165             0.524728            0             0.031932    [1[6[8][1][1]]]                                             
  C           2.437492            -8.573819             2.382882            1             0.099454    [6[8[1]][1][1][1]]                                          
  O           2.679688            -9.867566             2.905653            1            -0.597823    [8[6[1][1][1]][1]]                                          
  H           2.038553            -10.523822            2.595594            1             0.402573    [1[8[6]]]                                                   
  H           3.029956            -7.822040             2.875681            1             0.031932    [1[6[8][1][1]]]                                             
  H           2.705168            -8.531699             1.278498            1             0.031932    [1[6[8][1][1]]]                                             
  H           1.367416            -8.249438             2.468147            1             0.031932    [1[6[8][1][1]]]                                             
