12

  C           11.104101            1.379980            -2.789674            0             0.099454    [6[8[1]][1][1][1]]                                          
  O           10.501086            1.573904            -4.084412            0            -0.597823    [8[6[1][1][1]][1]]                                          
  H           10.985737            2.266012            -4.552232            0             0.402573    [1[8[6]]]                                                   
  H           12.067943            1.871421            -2.666359            0             0.031932    [1[6[8][1][1]]]                                             
  H           10.426387            1.644756            -2.008202            0             0.031932    [1[6[8][1][1]]]                                             
  H           11.529797            0.348971            -2.652523            0             0.031932    [1[6[8][1][1]]]                                             
  C           9.985999            -1.041515            -6.206606            1             0.099454    [6[8[1]][1][1][1]]                                          
  O           9.679240            -2.467454            -6.348799            1            -0.597823    [8[6[1][1][1]][1]]                                          
  H           10.198651           -2.803330            -7.006309            1             0.402573    [1[8[6]]]                                                   
  H           10.651009           -0.872188            -5.455774            1             0.031932    [1[6[8][1][1]]]                                             
  H           10.408236           -0.532107            -7.075587            1             0.031932    [1[6[8][1][1]]]                                             
  H           9.158436            -0.380384            -5.891513            1             0.031932    [1[6[8][1][1]]]                                             
