12

  C          -8.327295            -6.314122             3.863884            0             0.099454    [6[8[1]][1][1][1]]                                          
  O          -7.013995            -6.096790             4.267801            0            -0.597823    [8[6[1][1][1]][1]]                                          
  H          -6.519497            -6.634224             3.582791            0             0.402573    [1[8[6]]]                                                   
  H          -8.460313            -6.122950             2.836673            0             0.031932    [1[6[8][1][1]]]                                             
  H          -8.712477            -7.355026             4.012781            0             0.031932    [1[6[8][1][1]]]                                             
  H          -9.101512            -5.635674             4.311855            0             0.031932    [1[6[8][1][1]]]                                             
  C          -9.513766            -8.570702             7.187068            1             0.099454    [6[8[1]][1][1][1]]                                          
  O          -10.076444           -8.065438             8.428768            1            -0.597823    [8[6[1][1][1]][1]]                                          
  H          -9.333079            -8.226433             9.031325            1             0.402573    [1[8[6]]]                                                   
  H          -8.679151            -7.966749             6.771757            1             0.031932    [1[6[8][1][1]]]                                             
  H          -9.088397            -9.540467             7.387278            1             0.031932    [1[6[8][1][1]]]                                             
  H          -10.279644           -8.693933             6.433474            1             0.031932    [1[6[8][1][1]]]                                             
