12

  C          -2.881200             5.269052             1.066537            0             0.099454    [6[8[1]][1][1][1]]                                          
  O          -2.445104             4.075524             0.341486            0            -0.597823    [8[6[1][1][1]][1]]                                          
  H          -2.756895             4.205874            -0.534556            0             0.402573    [1[8[6]]]                                                   
  H          -3.832270             5.165989             1.402556            0             0.031932    [1[6[8][1][1]]]                                             
  H          -2.191036             5.618454             1.900053            0             0.031932    [1[6[8][1][1]]]                                             
  H          -2.957396             6.094008             0.292697            0             0.031932    [1[6[8][1][1]]]                                             
  C          -6.296176             3.776495            -4.725563            1             0.099454    [6[8[1]][1][1][1]]                                          
  O          -5.685976             3.634716            -3.483569            1            -0.597823    [8[6[1][1][1]][1]]                                          
  H          -5.576019             4.521717            -3.251364            1             0.402573    [1[8[6]]]                                                   
  H          -5.678511             4.378508            -5.439903            1             0.031932    [1[6[8][1][1]]]                                             
  H          -6.424762             2.782603            -5.191134            1             0.031932    [1[6[8][1][1]]]                                             
  H          -7.243550             4.274723            -4.592986            1             0.031932    [1[6[8][1][1]]]                                             
