12

  C           3.021370             9.219144            -8.876034            0             0.099454    [6[8[1]][1][1][1]]                                          
  O           2.988232             10.333611           -8.053201            0            -0.597823    [8[6[1][1][1]][1]]                                          
  H           3.566255             11.030090           -8.396873            0             0.402573    [1[8[6]]]                                                   
  H           2.927108             8.298902            -8.306554            0             0.031932    [1[6[8][1][1]]]                                             
  H           2.081663             9.364225            -9.548580            0             0.031932    [1[6[8][1][1]]]                                             
  H           3.885532             9.146176            -9.495416            0             0.031932    [1[6[8][1][1]]]                                             
  C           5.985764             10.182728           -10.975158           1             0.099454    [6[8[1]][1][1][1]]                                          
  O           5.397680             11.452920           -11.172085           1            -0.597823    [8[6[1][1][1]][1]]                                          
  H           5.812482             11.988975           -10.549282           1             0.402573    [1[8[6]]]                                                   
  H           5.538513             9.459430            -11.657102           1             0.031932    [1[6[8][1][1]]]                                             
  H           7.044986             10.189110           -11.254840           1             0.031932    [1[6[8][1][1]]]                                             
  H           5.906226             9.834086            -9.951281            1             0.031932    [1[6[8][1][1]]]                                             
