12

  C          -8.442272             8.587771             7.921201            0             0.099454    [6[8[1]][1][1][1]]                                          
  O          -7.077809             8.894588             8.253846            0            -0.597823    [8[6[1][1][1]][1]]                                          
  H          -6.520433             8.298037             7.747672            0             0.402573    [1[8[6]]]                                                   
  H          -9.172113             9.401632             8.219784            0             0.031932    [1[6[8][1][1]]]                                             
  H          -8.441052             8.470116             6.835245            0             0.031932    [1[6[8][1][1]]]                                             
  H          -8.718310             7.655765             8.419428            0             0.031932    [1[6[8][1][1]]]                                             
  C          -4.487210             10.815205            8.350348            1             0.099454    [6[8[1]][1][1][1]]                                          
  O          -4.551574             10.014269            9.504995            1            -0.597823    [8[6[1][1][1]][1]]                                          
  H          -5.360947             9.518464             9.275820            1             0.402573    [1[8[6]]]                                                   
  H          -5.241380             11.625561            8.355887            1             0.031932    [1[6[8][1][1]]]                                             
  H          -3.526033             11.207367            7.985136            1             0.031932    [1[6[8][1][1]]]                                             
  H          -4.922902             10.255765            7.497466            1             0.031932    [1[6[8][1][1]]]                                             
