12

  C          -3.614518             2.377771            -3.383967            0             0.099454    [6[8[1]][1][1][1]]                                          
  O          -2.329150             2.667694            -3.971855            0            -0.597823    [8[6[1][1][1]][1]]                                          
  H          -1.580685             2.454712            -3.361758            0             0.402573    [1[8[6]]]                                                   
  H          -4.317410             3.034180            -3.857457            0             0.031932    [1[6[8][1][1]]]                                             
  H          -3.902533             1.347979            -3.342968            0             0.031932    [1[6[8][1][1]]]                                             
  H          -3.658207             2.674005            -2.304684            0             0.031932    [1[6[8][1][1]]]                                             
  C          -0.965457             4.781044            -1.881305            1             0.099454    [6[8[1]][1][1][1]]                                          
  O          -0.332805             3.515278            -2.121490            1            -0.597823    [8[6[1][1][1]][1]]                                          
  H           0.266753             3.400385            -1.455536            1             0.402573    [1[8[6]]]                                                   
  H          -0.340095             5.601950            -2.194661            1             0.031932    [1[6[8][1][1]]]                                             
  H          -1.826995             4.860633            -2.567070            1             0.031932    [1[6[8][1][1]]]                                             
  H          -1.330700             4.843908            -0.895012            1             0.031932    [1[6[8][1][1]]]                                             
