12

  C          -11.039653           -0.863043            -7.009951            0             0.099454    [6[8[1]][1][1][1]]                                          
  O          -9.846374            -0.423377            -7.613633            0            -0.597823    [8[6[1][1][1]][1]]                                          
  H          -9.078687            -0.729567            -7.139579            0             0.402573    [1[8[6]]]                                                   
  H          -10.911681           -0.614363            -5.982342            0             0.031932    [1[6[8][1][1]]]                                             
  H          -11.876190           -0.281241            -7.407889            0             0.031932    [1[6[8][1][1]]]                                             
  H          -11.245498           -1.931224            -7.171333            0             0.031932    [1[6[8][1][1]]]                                             
  C          -6.316329            -5.802914            -5.097869            1             0.099454    [6[8[1]][1][1][1]]                                          
  O          -6.414243            -4.511786            -5.694485            1            -0.597823    [8[6[1][1][1]][1]]                                          
  H          -7.301852            -4.215808            -5.520922            1             0.402573    [1[8[6]]]                                                   
  H          -7.225144            -6.399396            -5.193592            1             0.031932    [1[6[8][1][1]]]                                             
  H          -5.578863            -6.487633            -5.451147            1             0.031932    [1[6[8][1][1]]]                                             
  H          -6.465521            -5.734463            -4.001976            1             0.031932    [1[6[8][1][1]]]                                             
