12

  C           6.774995            -8.324252            -6.953877            0             0.099454    [6[8[1]][1][1][1]]                                          
  O           7.881105            -8.521997            -6.079112            0            -0.597823    [8[6[1][1][1]][1]]                                          
  H           7.517149            -8.829247            -5.213137            0             0.402573    [1[8[6]]]                                                   
  H           6.347906            -9.271718            -7.258913            0             0.031932    [1[6[8][1][1]]]                                             
  H           6.000089            -7.780573            -6.407686            0             0.031932    [1[6[8][1][1]]]                                             
  H           7.153695            -7.866640            -7.863631            0             0.031932    [1[6[8][1][1]]]                                             
  C           9.776861            -9.109288            -9.269210            1             0.099454    [6[8[1]][1][1][1]]                                          
  O           10.300531           -9.021929            -10.581409           1            -0.597823    [8[6[1][1][1]][1]]                                          
  H           9.480383            -8.848750            -11.025954           1             0.402573    [1[8[6]]]                                                   
  H           8.931605            -9.829989            -9.327098            1             0.031932    [1[6[8][1][1]]]                                             
  H           10.492807           -9.525603            -8.564970            1             0.031932    [1[6[8][1][1]]]                                             
  H           9.522681            -8.060756            -8.912104            1             0.031932    [1[6[8][1][1]]]                                             
