12

  C          -8.511850            -0.963525            -8.511419            0             0.099454    [6[8[1]][1][1][1]]                                          
  O          -7.419741            -0.358722            -7.879378            0            -0.597823    [8[6[1][1][1]][1]]                                          
  H          -6.722054            -0.542908            -8.465725            0             0.402573    [1[8[6]]]                                                   
  H          -8.506354            -2.102621            -8.689913            0             0.031932    [1[6[8][1][1]]]                                             
  H          -9.434446            -0.754104            -8.016659            0             0.031932    [1[6[8][1][1]]]                                             
  H          -8.626261            -0.625500            -9.523608            0             0.031932    [1[6[8][1][1]]]                                             
  C          -6.945636             3.312507            -8.402463            1             0.099454    [6[8[1]][1][1][1]]                                          
  O          -6.953330             2.354367            -7.433523            1            -0.597823    [8[6[1][1][1]][1]]                                          
  H          -6.634259             1.523126            -7.842062            1             0.402573    [1[8[6]]]                                                   
  H          -7.547421             3.051407            -9.268377            1             0.031932    [1[6[8][1][1]]]                                             
  H          -7.182945             4.348131            -8.049637            1             0.031932    [1[6[8][1][1]]]                                             
  H          -5.994893             3.351768            -8.844000            1             0.031932    [1[6[8][1][1]]]                                             
