12

  C           3.346385             5.166609            -0.324777            0             0.099454    [6[8[1]][1][1][1]]                                          
  O           4.605433             4.856927            -0.851271            0            -0.597823    [8[6[1][1][1]][1]]                                          
  H           4.735588             5.658297            -1.389277            0             0.402573    [1[8[6]]]                                                   
  H           2.939554             4.225934            -0.016089            0             0.031932    [1[6[8][1][1]]]                                             
  H           3.411675             5.727115             0.579502            0             0.031932    [1[6[8][1][1]]]                                             
  H           2.613158             5.716876            -1.000328            0             0.031932    [1[6[8][1][1]]]                                             
  C           5.079205             10.088721            1.155748            1             0.099454    [6[8[1]][1][1][1]]                                          
  O           4.727494             10.801788           -0.003881            1            -0.597823    [8[6[1][1][1]][1]]                                          
  H           5.357990             11.570185           -0.053049            1             0.402573    [1[8[6]]]                                                   
  H           4.991311             9.059950             0.974332            1             0.031932    [1[6[8][1][1]]]                                             
  H           6.151954             10.261616            1.523012            1             0.031932    [1[6[8][1][1]]]                                             
  H           4.377701             10.170308            2.005355            1             0.031932    [1[6[8][1][1]]]                                             
