12

  C          -8.550756             3.122368             3.230009            0             0.099454    [6[8[1]][1][1][1]]                                          
  O          -8.562572             2.964860             1.793958            0            -0.597823    [8[6[1][1][1]][1]]                                          
  H          -8.190921             3.761981             1.375839            0             0.402573    [1[8[6]]]                                                   
  H          -9.274297             2.452273             3.762807            0             0.031932    [1[6[8][1][1]]]                                             
  H          -7.574168             2.767367             3.602449            0             0.031932    [1[6[8][1][1]]]                                             
  H          -8.847867             4.108928             3.617314            0             0.031932    [1[6[8][1][1]]]                                             
  C          -9.453415             2.272637            -1.854125            1             0.099454    [6[8[1]][1][1][1]]                                          
  O          -10.232456            1.206431            -1.363501            1            -0.597823    [8[6[1][1][1]][1]]                                          
  H          -11.006896            1.523808            -0.899338            1             0.402573    [1[8[6]]]                                                   
  H          -10.083920            3.094927            -2.171707            1             0.031932    [1[6[8][1][1]]]                                             
  H          -8.932081             2.767258            -0.972822            1             0.031932    [1[6[8][1][1]]]                                             
  H          -8.653163             1.996415            -2.563846            1             0.031932    [1[6[8][1][1]]]                                             
