12

  C           7.069487             6.948817             1.348319            0             0.099454    [6[8[1]][1][1][1]]                                          
  O           6.833436             7.462442             0.067141            0            -0.597823    [8[6[1][1][1]][1]]                                          
  H           6.469724             6.786522            -0.512093            0             0.402573    [1[8[6]]]                                                   
  H           6.543788             6.020128             1.325691            0             0.031932    [1[6[8][1][1]]]                                             
  H           8.106300             6.629288             1.569079            0             0.031932    [1[6[8][1][1]]]                                             
  H           6.689718             7.616708             2.082214            0             0.031932    [1[6[8][1][1]]]                                             
  C           4.935027             10.096146           -2.149973            1             0.099454    [6[8[1]][1][1][1]]                                          
  O           3.643900             10.409832           -1.754304            1            -0.597823    [8[6[1][1][1]][1]]                                          
  H           3.059249             9.656433            -1.985649            1             0.402573    [1[8[6]]]                                                   
  H           4.791418             9.622786            -3.172130            1             0.031932    [1[6[8][1][1]]]                                             
  H           5.548370             10.968374           -2.274996            1             0.031932    [1[6[8][1][1]]]                                             
  H           5.286407             9.378235            -1.404877            1             0.031932    [1[6[8][1][1]]]                                             
