12

  C          -7.054189            -10.202237           -8.208105            0             0.099454    [6[8[1]][1][1][1]]                                          
  O          -7.807311            -10.115136           -7.076616            0            -0.597823    [8[6[1][1][1]][1]]                                          
  H          -8.441169            -9.383807            -7.207022            0             0.402573    [1[8[6]]]                                                   
  H          -6.824841            -9.282687            -8.695055            0             0.031932    [1[6[8][1][1]]]                                             
  H          -6.087356            -10.612694           -8.096553            0             0.031932    [1[6[8][1][1]]]                                             
  H          -7.525287            -10.779858           -9.050024            0             0.031932    [1[6[8][1][1]]]                                             
  C          -10.515816           -7.115298            -4.453699            1             0.099454    [6[8[1]][1][1][1]]                                          
  O          -9.387827            -7.988762            -4.395006            1            -0.597823    [8[6[1][1][1]][1]]                                          
  H          -8.723203            -7.769116            -5.073158            1             0.402573    [1[8[6]]]                                                   
  H          -10.485551           -6.500536            -5.387973            1             0.031932    [1[6[8][1][1]]]                                             
  H          -11.530329           -7.570905            -4.515946            1             0.031932    [1[6[8][1][1]]]                                             
  H          -10.438081           -6.409289            -3.639123            1             0.031932    [1[6[8][1][1]]]                                             
