12

  C           6.703492             0.396091             5.305588            0             0.099454    [6[8[1]][1][1][1]]                                          
  O           5.442587             0.726832             5.796296            0            -0.597823    [8[6[1][1][1]][1]]                                          
  H           4.738979             0.132312             5.362893            0             0.402573    [1[8[6]]]                                                   
  H           6.654158             0.514180             4.212192            0             0.031932    [1[6[8][1][1]]]                                             
  H           7.419029             1.101467             5.651365            0             0.031932    [1[6[8][1][1]]]                                             
  H           6.987095            -0.656286             5.527411            0             0.031932    [1[6[8][1][1]]]                                             
  C           3.347516             2.510579             7.905746            1             0.099454    [6[8[1]][1][1][1]]                                          
  O           2.922121             1.520003             7.053050            1            -0.597823    [8[6[1][1][1]][1]]                                          
  H           3.423921             0.693581             7.132739            1             0.402573    [1[8[6]]]                                                   
  H           4.440464             2.763975             7.918784            1             0.031932    [1[6[8][1][1]]]                                             
  H           2.761968             3.416181             7.826046            1             0.031932    [1[6[8][1][1]]]                                             
  H           3.109263             2.132877             8.914459            1             0.031932    [1[6[8][1][1]]]                                             
