12

  C          -0.575067            -10.156360            7.923037            0             0.099454    [6[8[1]][1][1][1]]                                          
  O           0.034573            -8.867391             8.103202            0            -0.597823    [8[6[1][1][1]][1]]                                          
  H           0.063083            -8.534555             7.191090            0             0.402573    [1[8[6]]]                                                   
  H          -0.260916            -10.777409            8.756213            0             0.031932    [1[6[8][1][1]]]                                             
  H          -1.647497            -10.080484            7.981376            0             0.031932    [1[6[8][1][1]]]                                             
  H          -0.388357            -10.646817            7.019382            0             0.031932    [1[6[8][1][1]]]                                             
  C          -4.820240            -6.867480             7.732437            1             0.099454    [6[8[1]][1][1][1]]                                          
  O          -3.651096            -7.047806             6.967407            1            -0.597823    [8[6[1][1][1]][1]]                                          
  H          -2.892290            -6.756424             7.484280            1             0.402573    [1[8[6]]]                                                   
  H          -5.073807            -7.703325             8.381583            1             0.031932    [1[6[8][1][1]]]                                             
  H          -4.832445            -5.895153             8.276370            1             0.031932    [1[6[8][1][1]]]                                             
  H          -5.724504            -6.692857             7.115147            1             0.031932    [1[6[8][1][1]]]                                             
