12

  C           5.805939             10.294651           -6.906468            0             0.099454    [6[8[1]][1][1][1]]                                          
  O           5.983511             11.721538           -7.025334            0            -0.597823    [8[6[1][1][1]][1]]                                          
  H           5.096172             12.079015           -7.135066            0             0.402573    [1[8[6]]]                                                   
  H           5.223192             9.968730            -7.767834            0             0.031932    [1[6[8][1][1]]]                                             
  H           6.785383             9.801651            -6.954070            0             0.031932    [1[6[8][1][1]]]                                             
  H           5.389869             9.935072            -5.948628            0             0.031932    [1[6[8][1][1]]]                                             
  C           4.799980             6.006494            -5.167319            1             0.099454    [6[8[1]][1][1][1]]                                          
  O           3.951177             6.217455            -4.023773            1            -0.597823    [8[6[1][1][1]][1]]                                          
  H           3.955789             5.362684            -3.580391            1             0.402573    [1[8[6]]]                                                   
  H           4.974411             6.973716            -5.687132            1             0.031932    [1[6[8][1][1]]]                                             
  H           5.733022             5.639043            -4.789739            1             0.031932    [1[6[8][1][1]]]                                             
  H           4.363213             5.250652            -5.814487            1             0.031932    [1[6[8][1][1]]]                                             
