12

  C           6.899267            -3.826440            -6.158132            0             0.099454    [6[8[1]][1][1][1]]                                          
  O           5.992380            -2.977941            -5.412868            0            -0.597823    [8[6[1][1][1]][1]]                                          
  H           6.206806            -2.101877            -5.713724            0             0.402573    [1[8[6]]]                                                   
  H           6.811481            -3.596181            -7.261637            0             0.031932    [1[6[8][1][1]]]                                             
  H           7.912850            -3.696008            -5.921194            0             0.031932    [1[6[8][1][1]]]                                             
  H           6.757874            -4.848951            -6.004020            0             0.031932    [1[6[8][1][1]]]                                             
  C           3.282959            -1.182157            -6.440100            1             0.099454    [6[8[1]][1][1][1]]                                          
  O           3.648288            -1.701234            -5.111247            1            -0.597823    [8[6[1][1][1]][1]]                                          
  H           4.038148            -2.570260            -5.268204            1             0.402573    [1[8[6]]]                                                   
  H           3.870765            -0.329049            -6.677919            1             0.031932    [1[6[8][1][1]]]                                             
  H           3.429946            -1.968021            -7.207339            1             0.031932    [1[6[8][1][1]]]                                             
  H           2.192807            -0.973335            -6.479095            1             0.031932    [1[6[8][1][1]]]                                             
