12

  C           2.306363             7.977900            -7.049044            0             0.099454    [6[8[1]][1][1][1]]                                          
  O           3.680497             7.508819            -7.003539            0            -0.597823    [8[6[1][1][1]][1]]                                          
  H           3.822370             6.627895            -7.386926            0             0.402573    [1[8[6]]]                                                   
  H           2.324172             9.011762            -7.391483            0             0.031932    [1[6[8][1][1]]]                                             
  H           1.650519             7.439648            -7.782240            0             0.031932    [1[6[8][1][1]]]                                             
  H           1.747418             7.886337            -6.125104            0             0.031932    [1[6[8][1][1]]]                                             
  C           5.147577             7.515241            -3.265000            1             0.099454    [6[8[1]][1][1][1]]                                          
  O           3.716713             7.577363            -3.335981            1            -0.597823    [8[6[1][1][1]][1]]                                          
  H           3.412833             6.771940            -3.793769            1             0.402573    [1[8[6]]]                                                   
  H           5.660477             8.347349            -2.790045            1             0.031932    [1[6[8][1][1]]]                                             
  H           5.521592             6.700084            -2.687815            1             0.031932    [1[6[8][1][1]]]                                             
  H           5.589001             7.427400            -4.268107            1             0.031932    [1[6[8][1][1]]]                                             
