12

  C           0.670655            -3.364613             3.881287            0             0.099454    [6[8[1]][1][1][1]]                                          
  O           1.611052            -4.392072             3.681750            0            -0.597823    [8[6[1][1][1]][1]]                                          
  H           1.133974            -5.221009             3.843205            0             0.402573    [1[8[6]]]                                                   
  H           1.203016            -2.432358             4.074149            0             0.031932    [1[6[8][1][1]]]                                             
  H          -0.108688            -3.330389             3.112099            0             0.031932    [1[6[8][1][1]]]                                             
  H           0.043285            -3.570151             4.731426            0             0.031932    [1[6[8][1][1]]]                                             
  C          -1.709434            -6.314648             3.430841            1             0.099454    [6[8[1]][1][1][1]]                                          
  O          -0.431729            -6.440922             3.934288            1            -0.597823    [8[6[1][1][1]][1]]                                          
  H          -0.546436            -6.993990             4.737379            1             0.402573    [1[8[6]]]                                                   
  H          -1.782671            -5.475495             2.724999            1             0.031932    [1[6[8][1][1]]]                                             
  H          -2.027611            -7.272603             2.944701            1             0.031932    [1[6[8][1][1]]]                                             
  H          -2.403258            -6.157242             4.311352            1             0.031932    [1[6[8][1][1]]]                                             
