12

  C          -6.181417             4.486553             9.135316            0             0.099454    [6[8[1]][1][1][1]]                                          
  O          -6.207112             3.427450             8.243800            0            -0.597823    [8[6[1][1][1]][1]]                                          
  H          -6.841590             3.548929             7.511015            0             0.402573    [1[8[6]]]                                                   
  H          -5.713710             5.329035             8.707369            0             0.031932    [1[6[8][1][1]]]                                             
  H          -7.179472             4.846988             9.405488            0             0.031932    [1[6[8][1][1]]]                                             
  H          -5.829679             4.273217             10.121663           0             0.031932    [1[6[8][1][1]]]                                             
  C          -4.269144             2.055567             5.808991            1             0.099454    [6[8[1]][1][1][1]]                                          
  O          -5.267021             1.395423             6.577179            1            -0.597823    [8[6[1][1][1]][1]]                                          
  H          -5.608203             2.101774             7.139157            1             0.402573    [1[8[6]]]                                                   
  H          -4.525395             1.965355             4.778729            1             0.031932    [1[6[8][1][1]]]                                             
  H          -4.252099             3.121950             6.038937            1             0.031932    [1[6[8][1][1]]]                                             
  H          -3.231462             1.807759             6.003058            1             0.031932    [1[6[8][1][1]]]                                             
