12

  C          -10.731025            2.823541            -1.194444            0             0.099454    [6[8[1]][1][1][1]]                                          
  O          -10.503371            3.750135            -0.081358            0            -0.597823    [8[6[1][1][1]][1]]                                          
  H          -9.717192             3.611297             0.489731            0             0.402573    [1[8[6]]]                                                   
  H          -10.037854            3.038673            -2.059465            0             0.031932    [1[6[8][1][1]]]                                             
  H          -10.587128            1.762189            -0.946121            0             0.031932    [1[6[8][1][1]]]                                             
  H          -11.729911            2.863897            -1.670803            0             0.031932    [1[6[8][1][1]]]                                             
  C          -8.589574             6.130416            -1.375605            1             0.099454    [6[8[1]][1][1][1]]                                          
  O          -9.930195             6.243223            -1.774311            1            -0.597823    [8[6[1][1][1]][1]]                                          
  H          -10.297952            5.420813            -1.545800            1             0.402573    [1[8[6]]]                                                   
  H          -8.562136             5.487636            -0.475464            1             0.031932    [1[6[8][1][1]]]                                             
  H          -7.952221             5.669713            -2.124242            1             0.031932    [1[6[8][1][1]]]                                             
  H          -8.029760             6.994471            -1.218246            1             0.031932    [1[6[8][1][1]]]                                             
