12

  C          -2.747217            -1.439285             7.215734            0             0.099454    [6[8[1]][1][1][1]]                                          
  O          -3.661565            -2.257749             7.941439            0            -0.597823    [8[6[1][1][1]][1]]                                          
  H          -4.087411            -2.914877             7.304557            0             0.402573    [1[8[6]]]                                                   
  H          -1.744539            -1.863552             7.165893            0             0.031932    [1[6[8][1][1]]]                                             
  H          -3.187766            -1.140830             6.244377            0             0.031932    [1[6[8][1][1]]]                                             
  H          -2.642980            -0.476722             7.720025            0             0.031932    [1[6[8][1][1]]]                                             
  C          -7.771424             0.982085             7.289678            1             0.099454    [6[8[1]][1][1][1]]                                          
  O          -9.054196             0.369781             7.319152            1            -0.597823    [8[6[1][1][1]][1]]                                          
  H          -8.995162            -0.225414             6.610430            1             0.402573    [1[8[6]]]                                                   
  H          -6.929032             0.295806             7.335867            1             0.031932    [1[6[8][1][1]]]                                             
  H          -7.578902             1.617215             6.425651            1             0.031932    [1[6[8][1][1]]]                                             
  H          -7.614184             1.661743             8.103123            1             0.031932    [1[6[8][1][1]]]                                             
