12

  C           6.430916            -8.552411            -1.489255            0             0.099454    [6[8[1]][1][1][1]]                                          
  O           6.868516            -9.819716            -2.040261            0            -0.597823    [8[6[1][1][1]][1]]                                          
  H           7.680427            -9.616635            -2.544591            0             0.402573    [1[8[6]]]                                                   
  H           5.535664            -8.670275            -0.881404            0             0.031932    [1[6[8][1][1]]]                                             
  H           7.250177            -8.131062            -0.814206            0             0.031932    [1[6[8][1][1]]]                                             
  H           6.147152            -7.774020            -2.250141            0             0.031932    [1[6[8][1][1]]]                                             
  C           5.921295            -4.081196             0.876660            1             0.099454    [6[8[1]][1][1][1]]                                          
  O           4.730588            -4.114347             1.648594            1            -0.597823    [8[6[1][1][1]][1]]                                          
  H           5.008761            -3.875728             2.544875            1             0.402573    [1[8[6]]]                                                   
  H           6.746514            -4.643051             1.365424            1             0.031932    [1[6[8][1][1]]]                                             
  H           5.650048            -4.427360            -0.147915            1             0.031932    [1[6[8][1][1]]]                                             
  H           6.249141            -3.052527             0.726825            1             0.031932    [1[6[8][1][1]]]                                             
