12

  C          -5.619514            -0.230082             9.710258            0             0.099454    [6[8[1]][1][1][1]]                                          
  O          -5.919557             0.391140             10.949691           0            -0.597823    [8[6[1][1][1]][1]]                                          
  H          -5.148180             1.017697             11.036180           0             0.402573    [1[8[6]]]                                                   
  H          -6.402927            -0.922974             9.360529            0             0.031932    [1[6[8][1][1]]]                                             
  H          -5.635728             0.617874             8.986753            0             0.031932    [1[6[8][1][1]]]                                             
  H          -4.641547            -0.829193             9.755749            0             0.031932    [1[6[8][1][1]]]                                             
  C          -10.364995           -2.695235             9.876491            1             0.099454    [6[8[1]][1][1][1]]                                          
  O          -9.169743            -1.905109             9.991197            1            -0.597823    [8[6[1][1][1]][1]]                                          
  H          -9.379466            -1.032003             10.160965           1             0.402573    [1[8[6]]]                                                   
  H          -10.850461           -2.909393             10.837082           1             0.031932    [1[6[8][1][1]]]                                             
  H          -11.023904           -2.325036             9.040922            1             0.031932    [1[6[8][1][1]]]                                             
  H          -10.088074           -3.703926             9.554288            1             0.031932    [1[6[8][1][1]]]                                             
