12

  C          -2.354992             4.220558            -11.114118           0             0.099454    [6[8[1]][1][1][1]]                                          
  O          -3.266662             5.290288            -11.142796           0            -0.597823    [8[6[1][1][1]][1]]                                          
  H          -4.137291             4.981376            -11.457363           0             0.402573    [1[8[6]]]                                                   
  H          -1.583191             4.453698            -10.358504           0             0.031932    [1[6[8][1][1]]]                                             
  H          -2.862234             3.277000            -10.825924           0             0.031932    [1[6[8][1][1]]]                                             
  H          -1.849931             4.156217            -12.122973           0             0.031932    [1[6[8][1][1]]]                                             
  C          -2.798939             4.815627            -7.758837            1             0.099454    [6[8[1]][1][1][1]]                                          
  O          -2.827165             4.871084            -6.320355            1            -0.597823    [8[6[1][1][1]][1]]                                          
  H          -3.739904             4.876962            -6.026058            1             0.402573    [1[8[6]]]                                                   
  H          -3.727449             4.623111            -8.234730            1             0.031932    [1[6[8][1][1]]]                                             
  H          -2.286946             5.679438            -8.216475            1             0.031932    [1[6[8][1][1]]]                                             
  H          -2.152676             4.037711            -8.122036            1             0.031932    [1[6[8][1][1]]]                                             
