12

  C           8.629797             8.547878             8.806274            0             0.099454    [6[8[1]][1][1][1]]                                          
  O           8.727650             7.489372             9.777322            0            -0.597823    [8[6[1][1][1]][1]]                                          
  H           8.906374             7.894992             10.650402           0             0.402573    [1[8[6]]]                                                   
  H           9.165527             9.433401             9.047837            0             0.031932    [1[6[8][1][1]]]                                             
  H           8.882979             8.196418             7.782462            0             0.031932    [1[6[8][1][1]]]                                             
  H           7.598564             8.894795             8.815134            0             0.031932    [1[6[8][1][1]]]                                             
  C           4.918881             5.852485             9.923070            1             0.099454    [6[8[1]][1][1][1]]                                          
  O           5.420235             7.182159             9.840038            1            -0.597823    [8[6[1][1][1]][1]]                                          
  H           6.326654             7.184408             9.631924            1             0.402573    [1[8[6]]]                                                   
  H           5.399851             5.240885             10.678256           1             0.031932    [1[6[8][1][1]]]                                             
  H           3.839993             5.811326             10.163391           1             0.031932    [1[6[8][1][1]]]                                             
  H           5.111345             5.355015             8.953127            1             0.031932    [1[6[8][1][1]]]                                             
