12

  C          -4.288569            -3.454093             4.046615            0             0.099454    [6[8[1]][1][1][1]]                                          
  O          -4.072984            -3.445141             5.450072            0            -0.597823    [8[6[1][1][1]][1]]                                          
  H          -3.608082            -2.611545             5.566733            0             0.402573    [1[8[6]]]                                                   
  H          -3.328369            -3.735090             3.527382            0             0.031932    [1[6[8][1][1]]]                                             
  H          -4.996269            -4.232074             3.685555            0             0.031932    [1[6[8][1][1]]]                                             
  H          -4.566862            -2.490800             3.649591            0             0.031932    [1[6[8][1][1]]]                                             
  C          -5.045475            -6.977459             6.051964            1             0.099454    [6[8[1]][1][1][1]]                                          
  O          -5.871820            -7.739681             5.194728            1            -0.597823    [8[6[1][1][1]][1]]                                          
  H          -5.413015            -8.548841             4.996319            1             0.402573    [1[8[6]]]                                                   
  H          -4.669456            -7.560262             6.890230            1             0.031932    [1[6[8][1][1]]]                                             
  H          -4.189951            -6.589664             5.541535            1             0.031932    [1[6[8][1][1]]]                                             
  H          -5.521018            -6.052839             6.421216            1             0.031932    [1[6[8][1][1]]]                                             
