12

  C          -4.396208            -10.088231            7.968100            0             0.099454    [6[8[1]][1][1][1]]                                          
  O          -4.541358            -10.043016            9.397026            0            -0.597823    [8[6[1][1][1]][1]]                                          
  H          -5.374781            -10.508898            9.367996            0             0.402573    [1[8[6]]]                                                   
  H          -3.640328            -10.774000            7.645287            0             0.031932    [1[6[8][1][1]]]                                             
  H          -5.301122            -10.360672            7.370571            0             0.031932    [1[6[8][1][1]]]                                             
  H          -4.204147            -9.012225             7.653104            0             0.031932    [1[6[8][1][1]]]                                             
  C          -5.535434            -7.265024             10.706028           1             0.099454    [6[8[1]][1][1][1]]                                          
  O          -4.300322            -6.619161             10.970741           1            -0.597823    [8[6[1][1][1]][1]]                                          
  H          -3.704640            -7.276469             10.740639           1             0.402573    [1[8[6]]]                                                   
  H          -5.820015            -7.945253             11.487688           1             0.031932    [1[6[8][1][1]]]                                             
  H          -6.413249            -6.635410             10.581916           1             0.031932    [1[6[8][1][1]]]                                             
  H          -5.440893            -7.870168             9.772601            1             0.031932    [1[6[8][1][1]]]                                             
