12

  C          -1.213343             0.238538            -5.928642            0             0.099454    [6[8[1]][1][1][1]]                                          
  O          -0.050785            -0.426938            -5.367251            0            -0.597823    [8[6[1][1][1]][1]]                                          
  H          -0.363767            -1.170551            -4.851548            0             0.402573    [1[8[6]]]                                                   
  H          -1.967699             0.294917            -5.170650            0             0.031932    [1[6[8][1][1]]]                                             
  H          -1.050817             1.218659            -6.355750            0             0.031932    [1[6[8][1][1]]]                                             
  H          -1.637108            -0.357791            -6.780960            0             0.031932    [1[6[8][1][1]]]                                             
  C           0.218613            -3.774525            -3.429401            1             0.099454    [6[8[1]][1][1][1]]                                          
  O          -0.607822            -3.042870            -4.238015            1            -0.597823    [8[6[1][1][1]][1]]                                          
  H          -0.933965            -3.609689            -4.932141            1             0.402573    [1[8[6]]]                                                   
  H           0.524269            -3.125596            -2.622507            1             0.031932    [1[6[8][1][1]]]                                             
  H          -0.271415            -4.676162            -3.031674            1             0.031932    [1[6[8][1][1]]]                                             
  H           1.146558            -4.186064            -3.897141            1             0.031932    [1[6[8][1][1]]]                                             
