12

  C          -5.503489            -1.823382            -3.854024            0             0.099454    [6[8[1]][1][1][1]]                                          
  O          -6.297757            -0.649085            -3.729353            0            -0.597823    [8[6[1][1][1]][1]]                                          
  H          -6.427129            -0.363208            -4.663941            0             0.402573    [1[8[6]]]                                                   
  H          -6.107571            -2.712703            -4.141055            0             0.031932    [1[6[8][1][1]]]                                             
  H          -4.877116            -1.810856            -4.734280            0             0.031932    [1[6[8][1][1]]]                                             
  H          -4.867101            -2.034921            -2.975977            0             0.031932    [1[6[8][1][1]]]                                             
  C          -7.175575             2.102630            -1.137737            1             0.099454    [6[8[1]][1][1][1]]                                          
  O          -6.360811             1.215459            -1.860402            1            -0.597823    [8[6[1][1][1]][1]]                                          
  H          -6.884850             0.520628            -2.253676            1             0.402573    [1[8[6]]]                                                   
  H          -7.351709             3.163128            -1.493092            1             0.031932    [1[6[8][1][1]]]                                             
  H          -8.215641             1.709698            -1.142995            1             0.031932    [1[6[8][1][1]]]                                             
  H          -6.928180             2.110446            -0.125712            1             0.031932    [1[6[8][1][1]]]                                             
