12

  C          -1.670944            -9.559233             3.799074            0             0.099454    [6[8[1]][1][1][1]]                                          
  O          -0.481268            -9.603435             3.036567            0            -0.597823    [8[6[1][1][1]][1]]                                          
  H          -0.736108            -9.305396             2.153526            0             0.402573    [1[8[6]]]                                                   
  H          -2.402088            -10.358033            3.567388            0             0.031932    [1[6[8][1][1]]]                                             
  H          -1.449708            -9.797974             4.816966            0             0.031932    [1[6[8][1][1]]]                                             
  H          -2.153882            -8.556090             3.774826            0             0.031932    [1[6[8][1][1]]]                                             
  C          -5.045475            -6.977459             6.051964            1             0.099454    [6[8[1]][1][1][1]]                                          
  O          -5.871820            -7.739681             5.194728            1            -0.597823    [8[6[1][1][1]][1]]                                          
  H          -5.413015            -8.548841             4.996319            1             0.402573    [1[8[6]]]                                                   
  H          -4.669456            -7.560262             6.890230            1             0.031932    [1[6[8][1][1]]]                                             
  H          -4.189951            -6.589664             5.541535            1             0.031932    [1[6[8][1][1]]]                                             
  H          -5.521018            -6.052839             6.421216            1             0.031932    [1[6[8][1][1]]]                                             
