6

  C           3.148158             4.646782            -2.117466            0             0.089063    [6[8[1]][1][1][1]]                                          
  O           3.249568             5.999764            -1.780564            0            -0.604789    [8[6[1][1][1]][1]]                                          
  H           3.323481             6.529908            -2.581000            0             0.406250    [1[8[6]]]                                                   
  H           3.523574             4.060480            -1.321831            0             0.036492    [1[6[8][1][1]]]                                             
  H           2.111619             4.295413            -2.309618            0             0.036492    [1[6[8][1][1]]]                                             
  H           3.798835             4.443636            -2.995783            0             0.036492    [1[6[8][1][1]]]                                             
