12

  C           1.659542             8.064693             6.619045            0             0.099454    [6[8[1]][1][1][1]]                                          
  O           1.285036             6.716515             6.451179            0            -0.597823    [8[6[1][1][1]][1]]                                          
  H           1.421251             6.185337             7.233705            0             0.402573    [1[8[6]]]                                                   
  H           1.064452             8.608270             7.410314            0             0.031932    [1[6[8][1][1]]]                                             
  H           2.687417             8.150073             6.816097            0             0.031932    [1[6[8][1][1]]]                                             
  H           1.495110             8.473051             5.686269            0             0.031932    [1[6[8][1][1]]]                                             
  C          -0.515498             4.393885             8.199787            1             0.099454    [6[8[1]][1][1][1]]                                          
  O           0.578833             5.082405             8.778407            1            -0.597823    [8[6[1][1][1]][1]]                                          
  H           0.391381             5.298747             9.694457            1             0.402573    [1[8[6]]]                                                   
  H          -0.654587             3.329830             8.581233            1             0.031932    [1[6[8][1][1]]]                                             
  H          -1.442507             4.980994             8.465543            1             0.031932    [1[6[8][1][1]]]                                             
  H          -0.377789             4.321679             7.132688            1             0.031932    [1[6[8][1][1]]]                                             
