12

  C          -9.935633            -1.088503             1.284899            0             0.099454    [6[8[1]][1][1][1]]                                          
  O          -11.033869           -1.960237             1.345496            0            -0.597823    [8[6[1][1][1]][1]]                                          
  H          -11.887862           -1.623931             1.666152            0             0.402573    [1[8[6]]]                                                   
  H          -8.996411            -1.368978             1.817904            0             0.031932    [1[6[8][1][1]]]                                             
  H          -9.676983            -0.896278             0.194077            0             0.031932    [1[6[8][1][1]]]                                             
  H          -10.219109           -0.076535             1.690126            0             0.031932    [1[6[8][1][1]]]                                             
  C          -8.070406            -4.503512             0.294764            1             0.099454    [6[8[1]][1][1][1]]                                          
  O          -8.673569            -5.587107            -0.386314            1            -0.597823    [8[6[1][1][1]][1]]                                          
  H          -9.563237            -5.630320            -0.002070            1             0.402573    [1[8[6]]]                                                   
  H          -7.873048            -4.860077             1.333254            1             0.031932    [1[6[8][1][1]]]                                             
  H          -7.174208            -4.111271            -0.251197            1             0.031932    [1[6[8][1][1]]]                                             
  H          -8.697759            -3.599668             0.320643            1             0.031932    [1[6[8][1][1]]]                                             
