12

  C           3.051319             10.744531           -1.095731            0             0.099454    [6[8[1]][1][1][1]]                                          
  O           4.041918             9.795528            -1.066697            0            -0.597823    [8[6[1][1][1]][1]]                                          
  H           3.695005             9.045905            -1.508227            0             0.402573    [1[8[6]]]                                                   
  H           2.823380             11.193484           -2.079917            0             0.031932    [1[6[8][1][1]]]                                             
  H           2.116573             10.257582           -0.937231            0             0.031932    [1[6[8][1][1]]]                                             
  H           3.298022             11.551580           -0.358631            0             0.031932    [1[6[8][1][1]]]                                             
  C           3.208912             8.523574             1.890041            1             0.099454    [6[8[1]][1][1][1]]                                          
  O           4.022419             9.685875             2.003729            1            -0.597823    [8[6[1][1][1]][1]]                                          
  H           4.329274             9.884666             1.116175            1             0.402573    [1[8[6]]]                                                   
  H           3.838737             7.602119             1.554761            1             0.031932    [1[6[8][1][1]]]                                             
  H           2.728100             8.354032             2.919526            1             0.031932    [1[6[8][1][1]]]                                             
  H           2.387934             8.697139             1.159460            1             0.031932    [1[6[8][1][1]]]                                             
