12

  C           5.769253             2.723060            -5.358341            0             0.099454    [6[8[1]][1][1][1]]                                          
  O           4.814784             3.262569            -6.303090            0            -0.597823    [8[6[1][1][1]][1]]                                          
  H           4.560570             4.189452            -6.048641            0             0.402573    [1[8[6]]]                                                   
  H           5.512399             1.716891            -5.023752            0             0.031932    [1[6[8][1][1]]]                                             
  H           6.764949             2.673232            -5.826764            0             0.031932    [1[6[8][1][1]]]                                             
  H           5.846086             3.305604            -4.359895            0             0.031932    [1[6[8][1][1]]]                                             
  C           6.835082             3.846317            -8.826568            1             0.099454    [6[8[1]][1][1][1]]                                          
  O           7.782450             3.576878            -9.885194            1            -0.597823    [8[6[1][1][1]][1]]                                          
  H           8.552816             3.207707            -9.439110            1             0.402573    [1[8[6]]]                                                   
  H           6.576839             2.941924            -8.234913            1             0.031932    [1[6[8][1][1]]]                                             
  H           7.180840             4.703544            -8.205151            1             0.031932    [1[6[8][1][1]]]                                             
  H           5.885759             4.173400            -9.286453            1             0.031932    [1[6[8][1][1]]]                                             
