12

  C           9.897088            -6.106647            -1.344404            0             0.099454    [6[8[1]][1][1][1]]                                          
  O           8.894205            -6.210218            -0.357511            0            -0.597823    [8[6[1][1][1]][1]]                                          
  H           8.365926            -5.424265            -0.546781            0             0.402573    [1[8[6]]]                                                   
  H           9.837343            -6.958201            -2.012444            0             0.031932    [1[6[8][1][1]]]                                             
  H           9.795360            -5.159881            -1.911323            0             0.031932    [1[6[8][1][1]]]                                             
  H           10.927268           -6.047717            -0.936030            0             0.031932    [1[6[8][1][1]]]                                             
  C           8.781810            -2.907840             1.108210            1             0.099454    [6[8[1]][1][1][1]]                                          
  O           8.441871            -2.974294            -0.306185            1            -0.597823    [8[6[1][1][1]][1]]                                          
  H           7.565023            -3.371196            -0.310385            1             0.402573    [1[8[6]]]                                                   
  H           8.668325            -3.878862             1.667925            1             0.031932    [1[6[8][1][1]]]                                             
  H           9.851191            -2.708176             1.214549            1             0.031932    [1[6[8][1][1]]]                                             
  H           8.151343            -2.172420             1.656720            1             0.031932    [1[6[8][1][1]]]                                             
