12

  C           6.430916            -8.552411            -1.489255            0             0.099454    [6[8[1]][1][1][1]]                                          
  O           6.868516            -9.819716            -2.040261            0            -0.597823    [8[6[1][1][1]][1]]                                          
  H           7.680427            -9.616635            -2.544591            0             0.402573    [1[8[6]]]                                                   
  H           5.535664            -8.670275            -0.881404            0             0.031932    [1[6[8][1][1]]]                                             
  H           7.250177            -8.131062            -0.814206            0             0.031932    [1[6[8][1][1]]]                                             
  H           6.147152            -7.774020            -2.250141            0             0.031932    [1[6[8][1][1]]]                                             
  C           5.145212            -11.023255           -6.473144            1             0.099454    [6[8[1]][1][1][1]]                                          
  O           6.165765            -10.033122           -6.475074            1            -0.597823    [8[6[1][1][1]][1]]                                          
  H           6.160345            -9.606264            -7.317652            1             0.402573    [1[8[6]]]                                                   
  H           4.241159            -10.711664           -5.988630            1             0.031932    [1[6[8][1][1]]]                                             
  H           4.936577            -11.255154           -7.514384            1             0.031932    [1[6[8][1][1]]]                                             
  H           5.558417            -11.941200           -6.064285            1             0.031932    [1[6[8][1][1]]]                                             
