12

  C          -6.030512             6.655904             1.816928            0             0.099454    [6[8[1]][1][1][1]]                                          
  O          -5.728468             6.776601             3.218112            0            -0.597823    [8[6[1][1][1]][1]]                                          
  H          -4.798940             6.874311             3.255842            0             0.402573    [1[8[6]]]                                                   
  H          -7.104650             6.813739             1.601745            0             0.031932    [1[6[8][1][1]]]                                             
  H          -5.444522             7.352368             1.185617            0             0.031932    [1[6[8][1][1]]]                                             
  H          -5.877691             5.637061             1.551672            0             0.031932    [1[6[8][1][1]]]                                             
  C          -10.204970            7.615686             2.738602            1             0.099454    [6[8[1]][1][1][1]]                                          
  O          -9.690328             8.291197             3.957859            1            -0.597823    [8[6[1][1][1]][1]]                                          
  H          -8.772755             8.499973             3.921221            1             0.402573    [1[8[6]]]                                                   
  H          -9.407760             7.280991             2.087798            1             0.031932    [1[6[8][1][1]]]                                             
  H          -10.925905            6.792328             2.886304            1             0.031932    [1[6[8][1][1]]]                                             
  H          -10.817833            8.344414             2.173466            1             0.031932    [1[6[8][1][1]]]                                             
