12

  C           5.317093            -1.389465             9.829214            0             0.099454    [6[8[1]][1][1][1]]                                          
  O           4.191214            -1.778297             9.136215            0            -0.597823    [8[6[1][1][1]][1]]                                          
  H           3.445085            -1.583899             9.711773            0             0.402573    [1[8[6]]]                                                   
  H           5.210921            -0.435185             10.318451           0             0.031932    [1[6[8][1][1]]]                                             
  H           5.554928            -2.009631             10.720505           0             0.031932    [1[6[8][1][1]]]                                             
  H           6.232359            -1.237325             9.223944            0             0.031932    [1[6[8][1][1]]]                                             
  C           3.347516             2.510579             7.905746            1             0.099454    [6[8[1]][1][1][1]]                                          
  O           2.922121             1.520003             7.053050            1            -0.597823    [8[6[1][1][1]][1]]                                          
  H           3.423921             0.693581             7.132739            1             0.402573    [1[8[6]]]                                                   
  H           4.440464             2.763975             7.918784            1             0.031932    [1[6[8][1][1]]]                                             
  H           2.761968             3.416181             7.826046            1             0.031932    [1[6[8][1][1]]]                                             
  H           3.109263             2.132877             8.914459            1             0.031932    [1[6[8][1][1]]]                                             
