12

  C           3.842016             6.695679             2.250202            0             0.099454    [6[8[1]][1][1][1]]                                          
  O           2.873278             7.246164             1.343030            0            -0.597823    [8[6[1][1][1]][1]]                                          
  H           3.031708             6.919436             0.425400            0             0.402573    [1[8[6]]]                                                   
  H           3.817862             5.565453             2.173094            0             0.031932    [1[6[8][1][1]]]                                             
  H           4.822762             6.953849             1.878522            0             0.031932    [1[6[8][1][1]]]                                             
  H           3.663193             7.138407             3.241986            0             0.031932    [1[6[8][1][1]]]                                             
  C           1.420045             7.380939             7.427169            1             0.099454    [6[8[1]][1][1][1]]                                          
  O           0.939324             8.125929             8.537015            1            -0.597823    [8[6[1][1][1]][1]]                                          
  H           0.306786             7.546973             8.938717            1             0.402573    [1[8[6]]]                                                   
  H           1.921516             8.051383             6.629556            1             0.031932    [1[6[8][1][1]]]                                             
  H           2.251655             6.753293             7.666494            1             0.031932    [1[6[8][1][1]]]                                             
  H           0.698540             6.672245             6.938021            1             0.031932    [1[6[8][1][1]]]                                             
