12

  C           9.668153            -8.802298             3.443174            0             0.099454    [6[8[1]][1][1][1]]                                          
  O           9.283030            -9.279826             2.182614            0            -0.597823    [8[6[1][1][1]][1]]                                          
  H           8.535800            -9.932465             2.235001            0             0.402573    [1[8[6]]]                                                   
  H           10.301862           -9.574787             3.917111            0             0.031932    [1[6[8][1][1]]]                                             
  H           10.289359           -7.879110             3.349851            0             0.031932    [1[6[8][1][1]]]                                             
  H           8.819729            -8.629750             4.115209            0             0.031932    [1[6[8][1][1]]]                                             
  C           10.347723           -9.588649             7.064256            1             0.099454    [6[8[1]][1][1][1]]                                          
  O           11.185352           -9.710996             8.190778            1            -0.597823    [8[6[1][1][1]][1]]                                          
  H           12.087945           -9.882253             7.837127            1             0.402573    [1[8[6]]]                                                   
  H           10.589801           -10.185587            6.252994            1             0.031932    [1[6[8][1][1]]]                                             
  H           9.303951            -9.795346             7.212084            1             0.031932    [1[6[8][1][1]]]                                             
  H           10.456146           -8.569573             6.683795            1             0.031932    [1[6[8][1][1]]]                                             
