12

  C           8.189695            -3.280318             4.656080            0             0.099454    [6[8[1]][1][1][1]]                                          
  O           8.707699            -3.551856             5.981906            0            -0.597823    [8[6[1][1][1]][1]]                                          
  H           9.065366            -2.754849             6.337936            0             0.402573    [1[8[6]]]                                                   
  H           8.093782            -2.275202             4.356234            0             0.031932    [1[6[8][1][1]]]                                             
  H           8.937084            -3.749127             3.947132            0             0.031932    [1[6[8][1][1]]]                                             
  H           7.235108            -3.741698             4.433493            0             0.031932    [1[6[8][1][1]]]                                             
  C           9.705342             0.411539             3.221765            1             0.099454    [6[8[1]][1][1][1]]                                          
  O           10.390401           -0.825732             3.217696            1            -0.597823    [8[6[1][1][1]][1]]                                          
  H           9.910130            -1.311990             2.517229            1             0.402573    [1[8[6]]]                                                   
  H           8.603460             0.070727             3.184463            1             0.031932    [1[6[8][1][1]]]                                             
  H           9.931842             1.116046             4.018518            1             0.031932    [1[6[8][1][1]]]                                             
  H           9.853176             0.875626             2.236560            1             0.031932    [1[6[8][1][1]]]                                             
