12

  C           3.346385             5.166609            -0.324777            0             0.099454    [6[8[1]][1][1][1]]                                          
  O           4.605433             4.856927            -0.851271            0            -0.597823    [8[6[1][1][1]][1]]                                          
  H           4.735588             5.658297            -1.389277            0             0.402573    [1[8[6]]]                                                   
  H           2.939554             4.225934            -0.016089            0             0.031932    [1[6[8][1][1]]]                                             
  H           3.411675             5.727115             0.579502            0             0.031932    [1[6[8][1][1]]]                                             
  H           2.613158             5.716876            -1.000328            0             0.031932    [1[6[8][1][1]]]                                             
  C          -1.574959             5.552687             0.052939            1             0.099454    [6[8[1]][1][1][1]]                                          
  O          -0.213049             5.315815            -0.311016            1            -0.597823    [8[6[1][1][1]][1]]                                          
  H           0.156390             6.059538            -0.790680            1             0.402573    [1[8[6]]]                                                   
  H          -2.149226             5.731861            -0.873116            1             0.031932    [1[6[8][1][1]]]                                             
  H          -1.975648             4.632163             0.646193            1             0.031932    [1[6[8][1][1]]]                                             
  H          -1.674990             6.385533             0.750422            1             0.031932    [1[6[8][1][1]]]                                             
