12

  C          -11.035410            5.416340             2.897314            0             0.099454    [6[8[1]][1][1][1]]                                          
  O          -11.338595            4.150427             3.519232            0            -0.597823    [8[6[1][1][1]][1]]                                          
  H          -11.422726            4.333641             4.462642            0             0.402573    [1[8[6]]]                                                   
  H          -10.013838            5.561956             3.186044            0             0.031932    [1[6[8][1][1]]]                                             
  H          -11.174903            5.385946             1.837457            0             0.031932    [1[6[8][1][1]]]                                             
  H          -11.582966            6.313979             3.313232            0             0.031932    [1[6[8][1][1]]]                                             
  C          -9.809337             4.625064             8.066705            1             0.099454    [6[8[1]][1][1][1]]                                          
  O          -10.372612            4.382840             6.748951            1            -0.597823    [8[6[1][1][1]][1]]                                          
  H          -11.292812            4.100494             6.801585            1             0.402573    [1[8[6]]]                                                   
  H          -9.570127             3.753823             8.548412            1             0.031932    [1[6[8][1][1]]]                                             
  H          -8.941450             5.281015             8.024271            1             0.031932    [1[6[8][1][1]]]                                             
  H          -10.560343            5.100254             8.710756            1             0.031932    [1[6[8][1][1]]]                                             
