12

  C          -6.481891            -7.877271             7.250222            0             0.099454    [6[8[1]][1][1][1]]                                          
  O          -6.198547            -6.565036             6.837370            0            -0.597823    [8[6[1][1][1]][1]]                                          
  H          -6.806889            -6.005382             7.336781            0             0.402573    [1[8[6]]]                                                   
  H          -7.552956            -8.073217             7.112625            0             0.031932    [1[6[8][1][1]]]                                             
  H          -5.784904            -8.580147             6.772301            0             0.031932    [1[6[8][1][1]]]                                             
  H          -6.373916            -7.930089             8.316778            0             0.031932    [1[6[8][1][1]]]                                             
  C          -8.742703            -3.996906             6.645358            1             0.099454    [6[8[1]][1][1][1]]                                          
  O          -7.432453            -4.228092             7.296616            1            -0.597823    [8[6[1][1][1]][1]]                                          
  H          -6.872880            -3.550490             6.954172            1             0.402573    [1[8[6]]]                                                   
  H          -8.755564            -4.171545             5.556517            1             0.031932    [1[6[8][1][1]]]                                             
  H          -9.437313            -4.625854             7.035804            1             0.031932    [1[6[8][1][1]]]                                             
  H          -9.172607            -3.013105             6.807960            1             0.031932    [1[6[8][1][1]]]                                             
