12

  C          -10.375505           -4.960749             7.946851            0             0.099454    [6[8[1]][1][1][1]]                                          
  O          -9.642178            -5.442567             9.053900            0            -0.597823    [8[6[1][1][1]][1]]                                          
  H          -8.691800            -5.201689             8.950636            0             0.402573    [1[8[6]]]                                                   
  H          -10.167035           -3.861458             7.836192            0             0.031932    [1[6[8][1][1]]]                                             
  H          -10.193119           -5.459755             6.987035            0             0.031932    [1[6[8][1][1]]]                                             
  H          -11.476513           -4.870037             8.202719            0             0.031932    [1[6[8][1][1]]]                                             
  C          -6.377136            -5.409427             9.602485            1             0.099454    [6[8[1]][1][1][1]]                                          
  O          -6.942819            -6.244277             8.593473            1            -0.597823    [8[6[1][1][1]][1]]                                          
  H          -6.239528            -6.315074             7.921902            1             0.402573    [1[8[6]]]                                                   
  H          -7.112668            -5.220025             10.409225           1             0.031932    [1[6[8][1][1]]]                                             
  H          -5.434968            -5.762906             10.066727           1             0.031932    [1[6[8][1][1]]]                                             
  H          -6.091281            -4.484647             9.137633            1             0.031932    [1[6[8][1][1]]]                                             
