12

  C           7.257563             6.735818             4.442851            0             0.099454    [6[8[1]][1][1][1]]                                          
  O           8.386543             7.556154             4.548185            0            -0.597823    [8[6[1][1][1]][1]]                                          
  H           9.044606             7.039462             5.018656            0             0.402573    [1[8[6]]]                                                   
  H           7.278685             6.428361             3.430371            0             0.031932    [1[6[8][1][1]]]                                             
  H           7.463774             5.931356             5.183014            0             0.031932    [1[6[8][1][1]]]                                             
  H           6.305239             7.244127             4.579032            0             0.031932    [1[6[8][1][1]]]                                             
  C           4.982957             4.001329             5.891778            1             0.099454    [6[8[1]][1][1][1]]                                          
  O           4.613225             3.537500             4.583148            1            -0.597823    [8[6[1][1][1]][1]]                                          
  H           5.346133             3.845427             3.967900            1             0.402573    [1[8[6]]]                                                   
  H           4.870589             3.154463             6.600303            1             0.031932    [1[6[8][1][1]]]                                             
  H           6.029761             4.384582             5.912499            1             0.031932    [1[6[8][1][1]]]                                             
  H           4.309728             4.826055             6.124172            1             0.031932    [1[6[8][1][1]]]                                             
