12

  C           5.326910             4.806322            -3.533113            0             0.099454    [6[8[1]][1][1][1]]                                          
  O           6.034877             3.972360            -4.447765            0            -0.597823    [8[6[1][1][1]][1]]                                          
  H           6.237275             3.163824            -3.960999            0             0.402573    [1[8[6]]]                                                   
  H           6.014065             5.326131            -2.833834            0             0.031932    [1[6[8][1][1]]]                                             
  H           4.817935             5.581777            -4.157801            0             0.031932    [1[6[8][1][1]]]                                             
  H           4.623172             4.233674            -2.922331            0             0.031932    [1[6[8][1][1]]]                                             
  C           4.114963             9.116766            -3.744822            1             0.099454    [6[8[1]][1][1][1]]                                          
  O           4.407831             7.878221            -3.105757            1            -0.597823    [8[6[1][1][1]][1]]                                          
  H           5.295298             7.916926            -2.878524            1             0.402573    [1[8[6]]]                                                   
  H           4.958268             9.458118            -4.328347            1             0.031932    [1[6[8][1][1]]]                                             
  H           3.350205             9.056568            -4.540735            1             0.031932    [1[6[8][1][1]]]                                             
  H           3.769307             9.872373            -2.995837            1             0.031932    [1[6[8][1][1]]]                                             
