12

  C          -2.615448            -10.755304            2.628873            0             0.099454    [6[8[1]][1][1][1]]                                          
  O          -2.908532            -9.997534             1.453146            0            -0.597823    [8[6[1][1][1]][1]]                                          
  H          -3.393054            -10.558160            0.797230            0             0.402573    [1[8[6]]]                                                   
  H          -3.465573            -11.407798            2.994486            0             0.031932    [1[6[8][1][1]]]                                             
  H          -1.643496            -11.228046            2.392343            0             0.031932    [1[6[8][1][1]]]                                             
  H          -2.479222            -10.048655            3.452952            0             0.031932    [1[6[8][1][1]]]                                             
  C           0.792838            -9.070158             2.401882            1             0.099454    [6[8[1]][1][1][1]]                                          
  O           0.276286            -9.218674             1.112925            1            -0.597823    [8[6[1][1][1]][1]]                                          
  H           0.124117            -10.154247            0.983870            1             0.402573    [1[8[6]]]                                                   
  H           1.551485            -9.769572             2.706125            1             0.031932    [1[6[8][1][1]]]                                             
  H           1.156227            -7.997919             2.475319            1             0.031932    [1[6[8][1][1]]]                                             
  H           0.128918            -9.274081             3.271337            1             0.031932    [1[6[8][1][1]]]                                             
