12

  C           0.268052            -0.046767             5.581680            0             0.099454    [6[8[1]][1][1][1]]                                          
  O          -0.161142             0.920445             4.714740            0            -0.597823    [8[6[1][1][1]][1]]                                          
  H          -0.409012             1.609506             5.350271            0             0.402573    [1[8[6]]]                                                   
  H           0.077832             0.085115             6.615020            0             0.031932    [1[6[8][1][1]]]                                             
  H          -0.236730            -0.938475             5.403433            0             0.031932    [1[6[8][1][1]]]                                             
  H           1.366188            -0.264199             5.530111            0             0.031932    [1[6[8][1][1]]]                                             
  C          -1.118529            -0.623096             1.390326            1             0.099454    [6[8[1]][1][1][1]]                                          
  O          -1.450711            -0.951865             2.673097            1            -0.597823    [8[6[1][1][1]][1]]                                          
  H          -1.126183            -0.209045             3.215277            1             0.402573    [1[8[6]]]                                                   
  H          -0.077548            -0.848028             1.211740            1             0.031932    [1[6[8][1][1]]]                                             
  H          -1.628033            -1.282892             0.678701            1             0.031932    [1[6[8][1][1]]]                                             
  H          -1.315934             0.478849             1.238077            1             0.031932    [1[6[8][1][1]]]                                             
