12

  C          -2.287004            -7.105774            -7.763036            0             0.099454    [6[8[1]][1][1][1]]                                          
  O          -0.949285            -7.170664            -8.203545            0            -0.597823    [8[6[1][1][1]][1]]                                          
  H          -0.939735            -7.506460            -9.050222            0             0.402573    [1[8[6]]]                                                   
  H          -2.333886            -6.430946            -6.937260            0             0.031932    [1[6[8][1][1]]]                                             
  H          -2.922818            -6.617067            -8.546304            0             0.031932    [1[6[8][1][1]]]                                             
  H          -2.776979            -8.069040            -7.408969            0             0.031932    [1[6[8][1][1]]]                                             
  C          -3.641882            -6.013494            -3.653541            1             0.099454    [6[8[1]][1][1][1]]                                          
  O          -3.109496            -5.033797            -2.834084            1            -0.597823    [8[6[1][1][1]][1]]                                          
  H          -2.177298            -4.956198            -2.865698            1             0.402573    [1[8[6]]]                                                   
  H          -3.149717            -6.980031            -3.450855            1             0.031932    [1[6[8][1][1]]]                                             
  H          -4.734627            -6.165777            -3.567122            1             0.031932    [1[6[8][1][1]]]                                             
  H          -3.537758            -5.813317            -4.687027            1             0.031932    [1[6[8][1][1]]]                                             
