12

  C          -9.811344             4.558187             10.207530           0             0.099454    [6[8[1]][1][1][1]]                                          
  O          -8.653833             5.412163             9.985210            0            -0.597823    [8[6[1][1][1]][1]]                                          
  H          -8.166910             5.609681             10.804078           0             0.402573    [1[8[6]]]                                                   
  H          -10.766672            5.084000             10.437990           0             0.031932    [1[6[8][1][1]]]                                             
  H          -10.064099            3.949902             9.357270            0             0.031932    [1[6[8][1][1]]]                                             
  H          -9.652676             3.829172             10.959154           0             0.031932    [1[6[8][1][1]]]                                             
  C          -3.843015             3.387278             11.452532           1             0.099454    [6[8[1]][1][1][1]]                                          
  O          -4.433860             3.915718             10.307268           1            -0.597823    [8[6[1][1][1]][1]]                                          
  H          -3.773737             3.785140             9.575087            1             0.402573    [1[8[6]]]                                                   
  H          -2.782898             3.479782             11.476008           1             0.031932    [1[6[8][1][1]]]                                             
  H          -4.203933             3.855851             12.326470           1             0.031932    [1[6[8][1][1]]]                                             
  H          -4.218804             2.365851             11.573091           1             0.031932    [1[6[8][1][1]]]                                             
