12

  C          -8.741298             2.011350            -3.240860            0             0.099454    [6[8[1]][1][1][1]]                                          
  O          -9.621524             0.943779            -3.563059            0            -0.597823    [8[6[1][1][1]][1]]                                          
  H          -9.309505             0.156833            -3.162644            0             0.402573    [1[8[6]]]                                                   
  H          -9.085731             2.993607            -3.654103            0             0.031932    [1[6[8][1][1]]]                                             
  H          -8.600028             2.141304            -2.154189            0             0.031932    [1[6[8][1][1]]]                                             
  H          -7.868140             1.741703            -3.848083            0             0.031932    [1[6[8][1][1]]]                                             
  C          -9.347846             1.572445            -7.362608            1             0.099454    [6[8[1]][1][1][1]]                                          
  O          -9.229498             2.959362            -7.017927            1            -0.597823    [8[6[1][1][1]][1]]                                          
  H          -8.292907             3.042813            -6.689373            1             0.402573    [1[8[6]]]                                                   
  H          -9.106067             0.966314            -6.509872            1             0.031932    [1[6[8][1][1]]]                                             
  H          -10.326030            1.408049            -7.778850            1             0.031932    [1[6[8][1][1]]]                                             
  H          -8.577278             1.338307            -8.130141            1             0.031932    [1[6[8][1][1]]]                                             
