12

  C          -7.406621            -1.062606            -5.903901            0             0.099454    [6[8[1]][1][1][1]]                                          
  O          -6.974387             0.219346            -6.228345            0            -0.597823    [8[6[1][1][1]][1]]                                          
  H          -7.660141             0.893785            -5.989689            0             0.402573    [1[8[6]]]                                                   
  H          -7.602370            -1.107406            -4.873669            0             0.031932    [1[6[8][1][1]]]                                             
  H          -8.227226            -1.407391            -6.541051            0             0.031932    [1[6[8][1][1]]]                                             
  H          -6.599956            -1.807910            -5.961405            0             0.031932    [1[6[8][1][1]]]                                             
  C          -4.316056            -0.856498            -8.775751            1             0.099454    [6[8[1]][1][1][1]]                                          
  O          -4.542268            -0.190144            -7.540663            1            -0.597823    [8[6[1][1][1]][1]]                                          
  H          -5.476759            -0.406230            -7.283061            1             0.402573    [1[8[6]]]                                                   
  H          -4.513052            -1.905789            -8.747936            1             0.031932    [1[6[8][1][1]]]                                             
  H          -4.996496            -0.417810            -9.494669            1             0.031932    [1[6[8][1][1]]]                                             
  H          -3.271040            -0.721559            -9.192925            1             0.031932    [1[6[8][1][1]]]                                             
