12

  C           1.242681            -1.490844            -1.242399            0             0.099454    [6[8[1]][1][1][1]]                                          
  O           2.017750            -2.223303            -0.392427            0            -0.597823    [8[6[1][1][1]][1]]                                          
  H           2.854270            -2.385998            -0.915143            0             0.402573    [1[8[6]]]                                                   
  H           0.235646            -1.382705            -0.890573            0             0.031932    [1[6[8][1][1]]]                                             
  H           1.563453            -0.460555            -1.422829            0             0.031932    [1[6[8][1][1]]]                                             
  H           1.015853            -1.921014            -2.215583            0             0.031932    [1[6[8][1][1]]]                                             
  C          -0.915505            -1.309823             3.665352            1             0.099454    [6[8[1]][1][1][1]]                                          
  O          -0.468235            -0.920352             5.001852            1            -0.597823    [8[6[1][1][1]][1]]                                          
  H           0.109127            -0.150071             5.001110            1             0.402573    [1[8[6]]]                                                   
  H          -1.528910            -2.242467             3.688094            1             0.031932    [1[6[8][1][1]]]                                             
  H          -1.449078            -0.451866             3.227574            1             0.031932    [1[6[8][1][1]]]                                             
  H          -0.109767            -1.463050             2.909293            1             0.031932    [1[6[8][1][1]]]                                             
