12

  C          -6.308179            -5.387465            -2.161918            0             0.099454    [6[8[1]][1][1][1]]                                          
  O          -4.901234            -5.451709            -1.749648            0            -0.597823    [8[6[1][1][1]][1]]                                          
  H          -4.873933            -6.027285            -0.960875            0             0.402573    [1[8[6]]]                                                   
  H          -6.791508            -4.616564            -1.659120            0             0.031932    [1[6[8][1][1]]]                                             
  H          -6.432112            -5.097386            -3.261564            0             0.031932    [1[6[8][1][1]]]                                             
  H          -6.785034            -6.313867            -1.949980            0             0.031932    [1[6[8][1][1]]]                                             
  C          -1.927420            -4.681478            -0.819635            1             0.099454    [6[8[1]][1][1][1]]                                          
  O          -1.601244            -3.450223            -0.213688            1            -0.597823    [8[6[1][1][1]][1]]                                          
  H          -0.920131            -3.522494             0.448102            1             0.402573    [1[8[6]]]                                                   
  H          -0.976342            -5.266866            -0.868850            1             0.031932    [1[6[8][1][1]]]                                             
  H          -2.627015            -5.271775            -0.204945            1             0.031932    [1[6[8][1][1]]]                                             
  H          -2.341092            -4.634469            -1.832706            1             0.031932    [1[6[8][1][1]]]                                             
