12

  C           1.487376            -0.428665             4.266690            0             0.099454    [6[8[1]][1][1][1]]                                          
  O           2.630056            -0.194025             5.057445            0            -0.597823    [8[6[1][1][1]][1]]                                          
  H           2.762876            -0.876611             5.745413            0             0.402573    [1[8[6]]]                                                   
  H           1.308714             0.285588             3.519412            0             0.031932    [1[6[8][1][1]]]                                             
  H           1.633911            -1.323911             3.744331            0             0.031932    [1[6[8][1][1]]]                                             
  H           0.553844            -0.624710             4.835763            0             0.031932    [1[6[8][1][1]]]                                             
  C           1.679776            -3.546201             0.676951            1             0.099454    [6[8[1]][1][1][1]]                                          
  O           0.715683            -2.560960             0.566006            1            -0.597823    [8[6[1][1][1]][1]]                                          
  H           1.174141            -1.743596             0.382833            1             0.402573    [1[8[6]]]                                                   
  H           2.370658            -3.287889             1.424318            1             0.031932    [1[6[8][1][1]]]                                             
  H           1.297961            -4.499157             0.996631            1             0.031932    [1[6[8][1][1]]]                                             
  H           2.239425            -3.799190            -0.274607            1             0.031932    [1[6[8][1][1]]]                                             
