12

  C           9.668061            -3.866281            -6.976412            0             0.099454    [6[8[1]][1][1][1]]                                          
  O           8.552818            -3.581596            -6.200644            0            -0.597823    [8[6[1][1][1]][1]]                                          
  H           8.019114            -2.985444            -6.708306            0             0.402573    [1[8[6]]]                                                   
  H           10.315615           -4.650284            -6.516347            0             0.031932    [1[6[8][1][1]]]                                             
  H           9.364548            -4.279350            -7.979582            0             0.031932    [1[6[8][1][1]]]                                             
  H           10.229104           -2.945901            -7.121084            0             0.031932    [1[6[8][1][1]]]                                             
  C           5.063099            -1.500940            -9.334182            1             0.099454    [6[8[1]][1][1][1]]                                          
  O           4.808947            -0.973593            -8.100371            1            -0.597823    [8[6[1][1][1]][1]]                                          
  H           5.054176            -1.569019            -7.353234            1             0.402573    [1[8[6]]]                                                   
  H           6.141937            -1.618277            -9.421419            1             0.031932    [1[6[8][1][1]]]                                             
  H           4.541301            -2.439187            -9.608588            1             0.031932    [1[6[8][1][1]]]                                             
  H           4.776940            -0.855996            -10.258623           1             0.031932    [1[6[8][1][1]]]                                             
