12

  C          -7.880598            -11.079361           -8.845957            0             0.099454    [6[8[1]][1][1][1]]                                          
  O          -9.145112            -10.554833           -8.505144            0            -0.597823    [8[6[1][1][1]][1]]                                          
  H          -9.916251            -11.119350           -8.583174            0             0.402573    [1[8[6]]]                                                   
  H          -7.173620            -10.339800           -9.127684            0             0.031932    [1[6[8][1][1]]]                                             
  H          -7.395016            -11.633924           -8.037337            0             0.031932    [1[6[8][1][1]]]                                             
  H          -7.922735            -11.802137           -9.705003            0             0.031932    [1[6[8][1][1]]]                                             
  C          -8.183820            -8.890528            -5.592475            1             0.099454    [6[8[1]][1][1][1]]                                          
  O          -8.780247            -8.304853            -6.702268            1            -0.597823    [8[6[1][1][1]][1]]                                          
  H          -8.825074            -8.889431            -7.467641            1             0.402573    [1[8[6]]]                                                   
  H          -8.462808            -9.888458            -5.483758            1             0.031932    [1[6[8][1][1]]]                                             
  H          -7.092335            -8.916244            -5.847130            1             0.031932    [1[6[8][1][1]]]                                             
  H          -8.420054            -8.462473            -4.565540            1             0.031932    [1[6[8][1][1]]]                                             
