12

  C          -4.531715            -3.327488             3.855180            0             0.099454    [6[8[1]][1][1][1]]                                          
  O          -5.285925            -4.508734             4.030222            0            -0.597823    [8[6[1][1][1]][1]]                                          
  H          -4.623814            -5.225967             3.998889            0             0.402573    [1[8[6]]]                                                   
  H          -4.056107            -3.085744             4.805620            0             0.031932    [1[6[8][1][1]]]                                             
  H          -3.844368            -3.437728             3.013197            0             0.031932    [1[6[8][1][1]]]                                             
  H          -5.163979            -2.483007             3.642173            0             0.031932    [1[6[8][1][1]]]                                             
  C          -5.076573            -6.879441             1.705663            1             0.099454    [6[8[1]][1][1][1]]                                          
  O          -3.866430            -6.551945             2.291352            1            -0.597823    [8[6[1][1][1]][1]]                                          
  H          -3.217793            -7.265157             2.074985            1             0.402573    [1[8[6]]]                                                   
  H          -5.829489            -6.212226             1.964640            1             0.031932    [1[6[8][1][1]]]                                             
  H          -5.003095            -6.860190             0.617543            1             0.031932    [1[6[8][1][1]]]                                             
  H          -5.416746            -7.881705             2.055767            1             0.031932    [1[6[8][1][1]]]                                             
