12

  C          -3.613576             2.949622             3.934506            0             0.099454    [6[8[1]][1][1][1]]                                          
  O          -3.601508             3.698823             5.159507            0            -0.597823    [8[6[1][1][1]][1]]                                          
  H          -2.638820             3.713132             5.390762            0             0.402573    [1[8[6]]]                                                   
  H          -2.909974             3.467466             3.239017            0             0.031932    [1[6[8][1][1]]]                                             
  H          -3.265800             1.935287             3.994618            0             0.031932    [1[6[8][1][1]]]                                             
  H          -4.596142             2.930245             3.440482            0             0.031932    [1[6[8][1][1]]]                                             
  C          -3.015513             4.657646             8.973627            1             0.099454    [6[8[1]][1][1][1]]                                          
  O          -1.868843             4.290034             9.722191            1            -0.597823    [8[6[1][1][1]][1]]                                          
  H          -1.130121             4.887643             9.436925            1             0.402573    [1[8[6]]]                                                   
  H          -2.824309             4.660446             7.877721            1             0.031932    [1[6[8][1][1]]]                                             
  H          -3.872396             3.998280             9.281944            1             0.031932    [1[6[8][1][1]]]                                             
  H          -3.256881             5.665914             9.192009            1             0.031932    [1[6[8][1][1]]]                                             
