12

  C          -11.037527           -3.212661            -4.954349            0             0.099454    [6[8[1]][1][1][1]]                                          
  O          -11.653769           -4.363571            -4.477252            0            -0.597823    [8[6[1][1][1]][1]]                                          
  H          -10.981120           -5.061622            -4.515880            0             0.402573    [1[8[6]]]                                                   
  H          -10.440993           -2.781298            -4.187110            0             0.031932    [1[6[8][1][1]]]                                             
  H          -10.351017           -3.431853            -5.730058            0             0.031932    [1[6[8][1][1]]]                                             
  H          -11.762846           -2.445392            -5.269917            0             0.031932    [1[6[8][1][1]]]                                             
  C          -8.595847            -6.154089            -5.484625            1             0.099454    [6[8[1]][1][1][1]]                                          
  O          -9.426855            -6.482091            -4.449052            1            -0.597823    [8[6[1][1][1]][1]]                                          
  H          -8.852341            -7.088361            -3.970164            1             0.402573    [1[8[6]]]                                                   
  H          -7.546045            -5.835245            -5.055620            1             0.031932    [1[6[8][1][1]]]                                             
  H          -8.455440            -7.067868            -6.005202            1             0.031932    [1[6[8][1][1]]]                                             
  H          -8.996814            -5.380698            -6.153007            1             0.031932    [1[6[8][1][1]]]                                             
