12

  C           6.640702             1.118679             1.001048            0             0.099454    [6[8[1]][1][1][1]]                                          
  O           7.266035            -0.143782             1.123999            0            -0.597823    [8[6[1][1][1]][1]]                                          
  H           7.994274            -0.063849             0.473445            0             0.402573    [1[8[6]]]                                                   
  H           5.730766             1.058960             0.469523            0             0.031932    [1[6[8][1][1]]]                                             
  H           6.333335             1.429739             2.003741            0             0.031932    [1[6[8][1][1]]]                                             
  H           7.222567             1.942048             0.618447            0             0.031932    [1[6[8][1][1]]]                                             
  C           10.817425           -2.253238             2.686767            1             0.099454    [6[8[1]][1][1][1]]                                          
  O           11.196271           -2.498821             4.010807            1            -0.597823    [8[6[1][1][1]][1]]                                          
  H           10.538250           -2.908171             4.521803            1             0.402573    [1[8[6]]]                                                   
  H           9.929062            -1.706413             2.595542            1             0.031932    [1[6[8][1][1]]]                                             
  H           11.545464           -1.735707             2.147440            1             0.031932    [1[6[8][1][1]]]                                             
  H           10.553367           -3.127474             2.134818            1             0.031932    [1[6[8][1][1]]]                                             
