12

  C          -2.362305            -8.537415             2.161125            0             0.099454    [6[8[1]][1][1][1]]                                          
  O          -2.145167            -8.888710             0.809816            0            -0.597823    [8[6[1][1][1]][1]]                                          
  H          -2.903705            -8.484715             0.337570            0             0.402573    [1[8[6]]]                                                   
  H          -3.260686            -9.007105             2.541181            0             0.031932    [1[6[8][1][1]]]                                             
  H          -1.600004            -8.988229             2.783314            0             0.031932    [1[6[8][1][1]]]                                             
  H          -2.548693            -7.468420             2.287072            0             0.031932    [1[6[8][1][1]]]                                             
  C          -6.297636            -7.574919             2.797073            1             0.099454    [6[8[1]][1][1][1]]                                          
  O          -5.436312            -7.788280             1.702356            1            -0.597823    [8[6[1][1][1]][1]]                                          
  H          -5.218978            -6.945528             1.226079            1             0.402573    [1[8[6]]]                                                   
  H          -6.017857            -8.267462             3.586633            1             0.031932    [1[6[8][1][1]]]                                             
  H          -6.148262            -6.533509             3.099142            1             0.031932    [1[6[8][1][1]]]                                             
  H          -7.355991            -7.711219             2.511567            1             0.031932    [1[6[8][1][1]]]                                             
