12

  C           9.121018            -8.002332            -6.658130            0             0.099454    [6[8[1]][1][1][1]]                                          
  O           10.161908           -7.980103            -7.581041            0            -0.597823    [8[6[1][1][1]][1]]                                          
  H           10.228390           -8.853579            -7.970329            0             0.402573    [1[8[6]]]                                                   
  H           8.705024            -7.045005            -6.526222            0             0.031932    [1[6[8][1][1]]]                                             
  H           8.234115            -8.471532            -7.034247            0             0.031932    [1[6[8][1][1]]]                                             
  H           9.419755            -8.306082            -5.708888            0             0.031932    [1[6[8][1][1]]]                                             
  C           4.786815            -6.918655            -5.102293            1             0.099454    [6[8[1]][1][1][1]]                                          
  O           5.975221            -6.467177            -5.763916            1            -0.597823    [8[6[1][1][1]][1]]                                          
  H           5.586546            -5.956710            -6.485934            1             0.402573    [1[8[6]]]                                                   
  H           3.852278            -6.570519            -5.593039            1             0.031932    [1[6[8][1][1]]]                                             
  H           4.767182            -8.010396            -5.028749            1             0.031932    [1[6[8][1][1]]]                                             
  H           4.846948            -6.625967            -4.050205            1             0.031932    [1[6[8][1][1]]]                                             
