12

  C           10.131559           -0.929883            -3.069840            0             0.099454    [6[8[1]][1][1][1]]                                          
  O           8.749478            -0.835584            -3.413896            0            -0.597823    [8[6[1][1][1]][1]]                                          
  H           8.295501            -1.609561            -3.197512            0             0.402573    [1[8[6]]]                                                   
  H           10.881002           -1.133662            -3.916814            0             0.031932    [1[6[8][1][1]]]                                             
  H           10.518113           -0.027949            -2.527007            0             0.031932    [1[6[8][1][1]]]                                             
  H           10.152257           -1.698416            -2.209900            0             0.031932    [1[6[8][1][1]]]                                             
  C           5.969071            -3.405384            -0.265019            1             0.099454    [6[8[1]][1][1][1]]                                          
  O           7.102068            -2.889357            -0.942927            1            -0.597823    [8[6[1][1][1]][1]]                                          
  H           7.118643            -1.956619            -0.879665            1             0.402573    [1[8[6]]]                                                   
  H           6.277044            -3.784139             0.691122            1             0.031932    [1[6[8][1][1]]]                                             
  H           5.188285            -2.625284            -0.197412            1             0.031932    [1[6[8][1][1]]]                                             
  H           5.445635            -4.273494            -0.690587            1             0.031932    [1[6[8][1][1]]]                                             
