12

  C          -3.245610             4.766604             5.925738            0             0.099454    [6[8[1]][1][1][1]]                                          
  O          -2.105204             5.526825             5.753957            0            -0.597823    [8[6[1][1][1]][1]]                                          
  H          -2.061038             5.470847             4.812791            0             0.402573    [1[8[6]]]                                                   
  H          -3.398093             4.514218             6.964937            0             0.031932    [1[6[8][1][1]]]                                             
  H          -4.115643             5.335577             5.674308            0             0.031932    [1[6[8][1][1]]]                                             
  H          -3.145554             3.834048             5.296263            0             0.031932    [1[6[8][1][1]]]                                             
  C          -2.232339             6.120175             1.436863            1             0.099454    [6[8[1]][1][1][1]]                                          
  O          -1.684877             5.426233             2.544154            1            -0.597823    [8[6[1][1][1]][1]]                                          
  H          -0.759028             5.616553             2.607638            1             0.402573    [1[8[6]]]                                                   
  H          -1.450779             6.683787             0.962567            1             0.031932    [1[6[8][1][1]]]                                             
  H          -2.595102             5.439515             0.614280            1             0.031932    [1[6[8][1][1]]]                                             
  H          -3.038450             6.785370             1.740800            1             0.031932    [1[6[8][1][1]]]                                             
