12

  C          -4.531715            -3.327488             3.855180            0             0.099454    [6[8[1]][1][1][1]]                                          
  O          -5.285925            -4.508734             4.030222            0            -0.597823    [8[6[1][1][1]][1]]                                          
  H          -4.623814            -5.225967             3.998889            0             0.402573    [1[8[6]]]                                                   
  H          -4.056107            -3.085744             4.805620            0             0.031932    [1[6[8][1][1]]]                                             
  H          -3.844368            -3.437728             3.013197            0             0.031932    [1[6[8][1][1]]]                                             
  H          -5.163979            -2.483007             3.642173            0             0.031932    [1[6[8][1][1]]]                                             
  C          -6.876157            -3.537889             6.430555            1             0.099454    [6[8[1]][1][1][1]]                                          
  O          -7.557125            -4.068631             5.313738            1            -0.597823    [8[6[1][1][1]][1]]                                          
  H          -6.837903            -4.361989             4.734408            1             0.402573    [1[8[6]]]                                                   
  H          -6.067335            -2.821260             6.093197            1             0.031932    [1[6[8][1][1]]]                                             
  H          -7.594730            -2.834349             6.993745            1             0.031932    [1[6[8][1][1]]]                                             
  H          -6.463546            -4.327425             7.099497            1             0.031932    [1[6[8][1][1]]]                                             
