12

  C           1.789285             9.798423            -2.464702            0             0.099454    [6[8[1]][1][1][1]]                                          
  O           2.889570             10.586637           -2.007297            0            -0.597823    [8[6[1][1][1]][1]]                                          
  H           2.798921             10.643839           -1.020595            0             0.402573    [1[8[6]]]                                                   
  H           1.306149             10.392855           -3.281718            0             0.031932    [1[6[8][1][1]]]                                             
  H           2.071224             8.818361            -2.858965            0             0.031932    [1[6[8][1][1]]]                                             
  H           0.975558             9.695420            -1.724452            0             0.031932    [1[6[8][1][1]]]                                             
  C          -0.737842             8.074966            -4.224974            1             0.099454    [6[8[1]][1][1][1]]                                          
  O          -0.837398             7.776012            -2.862114            1            -0.597823    [8[6[1][1][1]][1]]                                          
  H          -0.171429             7.075582            -2.764346            1             0.402573    [1[8[6]]]                                                   
  H           0.352102             8.046983            -4.530430            1             0.031932    [1[6[8][1][1]]]                                             
  H          -1.171739             7.360708            -4.842329            1             0.031932    [1[6[8][1][1]]]                                             
  H          -1.044718             8.953931            -4.647239            1             0.031932    [1[6[8][1][1]]]                                             
