12

  C           2.453454             1.166860            -5.874115            0             0.099454    [6[8[1]][1][1][1]]                                          
  O           3.686145             1.240109            -5.184784            0            -0.597823    [8[6[1][1][1]][1]]                                          
  H           3.920853             2.166736            -5.242162            0             0.402573    [1[8[6]]]                                                   
  H           1.624176             1.779049            -5.362332            0             0.031932    [1[6[8][1][1]]]                                             
  H           2.542419             1.779453            -6.767790            0             0.031932    [1[6[8][1][1]]]                                             
  H           2.112095             0.179773            -6.170195            0             0.031932    [1[6[8][1][1]]]                                             
  C           6.967380             2.365094            -4.468360            1             0.099454    [6[8[1]][1][1][1]]                                          
  O           6.786280             0.978257            -4.387859            1            -0.597823    [8[6[1][1][1]][1]]                                          
  H           5.891313             0.887971            -4.708444            1             0.402573    [1[8[6]]]                                                   
  H           7.140251             2.770999            -5.463026            1             0.031932    [1[6[8][1][1]]]                                             
  H           6.044840             2.850187            -4.180671            1             0.031932    [1[6[8][1][1]]]                                             
  H           7.689173             2.773234            -3.763041            1             0.031932    [1[6[8][1][1]]]                                             
