12

  C          -2.565252             4.718114            -0.085181            0             0.099454    [6[8[1]][1][1][1]]                                          
  O          -2.001019             4.805665            -1.430314            0            -0.597823    [8[6[1][1][1]][1]]                                          
  H          -1.240345             5.338943            -1.221299            0             0.402573    [1[8[6]]]                                                   
  H          -1.779562             4.387065             0.613376            0             0.031932    [1[6[8][1][1]]]                                             
  H          -2.893558             5.626545             0.347260            0             0.031932    [1[6[8][1][1]]]                                             
  H          -3.394099             4.098800             0.009473            0             0.031932    [1[6[8][1][1]]]                                             
  C          -0.727275             1.563052            -0.967298            1             0.099454    [6[8[1]][1][1][1]]                                          
  O           0.096966             0.363734            -0.938946            1            -0.597823    [8[6[1][1][1]][1]]                                          
  H           0.008853            -0.073685            -1.808591            1             0.402573    [1[8[6]]]                                                   
  H          -1.797823             1.336049            -1.111129            1             0.031932    [1[6[8][1][1]]]                                             
  H          -0.641607             2.169287            -0.038777            1             0.031932    [1[6[8][1][1]]]                                             
  H          -0.399857             2.277220            -1.734787            1             0.031932    [1[6[8][1][1]]]                                             
