12

  C           0.029205            -3.305085             5.575801            0             0.099454    [6[8[1]][1][1][1]]                                          
  O          -1.152025            -2.596991             5.492510            0            -0.597823    [8[6[1][1][1]][1]]                                          
  H          -0.980307            -2.042697             4.669758            0             0.402573    [1[8[6]]]                                                   
  H           0.889800            -2.641096             5.935441            0             0.031932    [1[6[8][1][1]]]                                             
  H          -0.058726            -4.169142             6.203153            0             0.031932    [1[6[8][1][1]]]                                             
  H           0.260555            -3.587206             4.550461            0             0.031932    [1[6[8][1][1]]]                                             
  C          -0.704495            -0.888094             8.540632            1             0.099454    [6[8[1]][1][1][1]]                                          
  O          -0.622797            -1.770370             9.664507            1            -0.597823    [8[6[1][1][1]][1]]                                          
  H          -0.366410            -2.662427             9.339516            1             0.402573    [1[8[6]]]                                                   
  H           0.180823            -0.908649             7.909095            1             0.031932    [1[6[8][1][1]]]                                             
  H          -1.600900            -1.033869             7.949400            1             0.031932    [1[6[8][1][1]]]                                             
  H          -0.783568             0.097204             9.030896            1             0.031932    [1[6[8][1][1]]]                                             
