6

  C           11.119324           -6.065437            -9.394500            0             0.089063    [6[8[1]][1][1][1]]                                          
  O           9.991535            -5.417447            -8.810873            0            -0.604789    [8[6[1][1][1]][1]]                                          
  H           10.323432           -4.763089            -8.197233            0             0.406250    [1[8[6]]]                                                   
  H           11.670771           -6.694737            -8.669204            0             0.036492    [1[6[8][1][1]]]                                             
  H           10.838372           -6.558334            -10.338291           0             0.036492    [1[6[8][1][1]]]                                             
  H           11.958172           -5.352719            -9.652173            0             0.036492    [1[6[8][1][1]]]                                             
