12

  C           5.209246            -10.120723           -5.701148            0             0.099454    [6[8[1]][1][1][1]]                                          
  O           4.037578            -10.757201           -5.220941            0            -0.597823    [8[6[1][1][1]][1]]                                          
  H           3.358062            -10.743566           -5.919133            0             0.402573    [1[8[6]]]                                                   
  H           5.900256            -9.825994            -4.963677            0             0.031932    [1[6[8][1][1]]]                                             
  H           5.751556            -10.784558           -6.357159            0             0.031932    [1[6[8][1][1]]]                                             
  H           4.989983            -9.157232            -6.158616            0             0.031932    [1[6[8][1][1]]]                                             
  C           4.774426            -8.100343            -2.462904            1             0.099454    [6[8[1]][1][1][1]]                                          
  O           3.775210            -8.706812            -3.317403            1            -0.597823    [8[6[1][1][1]][1]]                                          
  H           3.715647            -9.629430            -3.337274            1             0.402573    [1[8[6]]]                                                   
  H           5.720722            -8.688947            -2.542135            1             0.031932    [1[6[8][1][1]]]                                             
  H           5.002248            -7.044043            -2.599598            1             0.031932    [1[6[8][1][1]]]                                             
  H           4.446611            -8.023833            -1.378385            1             0.031932    [1[6[8][1][1]]]                                             
