12

  C          -11.061836           -2.606470            -4.644816            0             0.099454    [6[8[1]][1][1][1]]                                          
  O          -10.141956           -2.658420            -5.709561            0            -0.597823    [8[6[1][1][1]][1]]                                          
  H          -9.563849            -3.404879            -5.487740            0             0.402573    [1[8[6]]]                                                   
  H          -11.760266           -1.855055            -4.820786            0             0.031932    [1[6[8][1][1]]]                                             
  H          -11.555235           -3.625237            -4.519928            0             0.031932    [1[6[8][1][1]]]                                             
  H          -10.483612           -2.275485            -3.754695            0             0.031932    [1[6[8][1][1]]]                                             
  C          -7.895082            -0.450816            -3.438418            1             0.099454    [6[8[1]][1][1][1]]                                          
  O          -6.790914            -1.236352            -2.968042            1            -0.597823    [8[6[1][1][1]][1]]                                          
  H          -6.962837            -1.616194            -2.049960            1             0.402573    [1[8[6]]]                                                   
  H          -8.781143            -1.121909            -3.639668            1             0.031932    [1[6[8][1][1]]]                                             
  H          -8.113031             0.359831            -2.751344            1             0.031932    [1[6[8][1][1]]]                                             
  H          -7.681932            -0.008726            -4.411791            1             0.031932    [1[6[8][1][1]]]                                             
