12

  C           2.939771            -2.227790            -3.898580            0             0.099454    [6[8[1]][1][1][1]]                                          
  O           1.598532            -2.364146            -4.278818            0            -0.597823    [8[6[1][1][1]][1]]                                          
  H           1.030626            -2.578482            -3.519687            0             0.402573    [1[8[6]]]                                                   
  H           3.277107            -1.226841            -3.999841            0             0.031932    [1[6[8][1][1]]]                                             
  H           3.127707            -2.535293            -2.947594            0             0.031932    [1[6[8][1][1]]]                                             
  H           3.644106            -2.871156            -4.413165            0             0.031932    [1[6[8][1][1]]]                                             
  C          -2.101916            -0.279065            -4.788085            1             0.099454    [6[8[1]][1][1][1]]                                          
  O          -1.050809            -0.721957            -5.590494            1            -0.597823    [8[6[1][1][1]][1]]                                          
  H          -0.525827            -1.437274            -5.185186            1             0.402573    [1[8[6]]]                                                   
  H          -2.636806            -1.236754            -4.606401            1             0.031932    [1[6[8][1][1]]]                                             
  H          -1.745714             0.126371            -3.848970            1             0.031932    [1[6[8][1][1]]]                                             
  H          -2.700001             0.405300            -5.380022            1             0.031932    [1[6[8][1][1]]]                                             
