12

  C          -2.839955            -3.953407            -0.078150            0             0.099454    [6[8[1]][1][1][1]]                                          
  O          -2.008247            -2.946951             0.371114            0            -0.597823    [8[6[1][1][1]][1]]                                          
  H          -2.187683            -2.219467            -0.178250            0             0.402573    [1[8[6]]]                                                   
  H          -3.058394            -3.772306            -1.120352            0             0.031932    [1[6[8][1][1]]]                                             
  H          -2.431864            -4.948480             0.016022            0             0.031932    [1[6[8][1][1]]]                                             
  H          -3.792097            -3.920621             0.402216            0             0.031932    [1[6[8][1][1]]]                                             
  C           1.972360            -3.242380            -2.291110            1             0.099454    [6[8[1]][1][1][1]]                                          
  O           0.886188            -3.726054            -3.031860            1            -0.597823    [8[6[1][1][1]][1]]                                          
  H           0.164085            -3.641322            -2.396645            1             0.402573    [1[8[6]]]                                                   
  H           1.793747            -2.285866            -1.788684            1             0.031932    [1[6[8][1][1]]]                                             
  H           2.331288            -3.957920            -1.507135            1             0.031932    [1[6[8][1][1]]]                                             
  H           2.874275            -3.131901            -2.845409            1             0.031932    [1[6[8][1][1]]]                                             
