12

  C          -2.094311             2.283453             2.567803            0             0.099454    [6[8[1]][1][1][1]]                                          
  O          -2.206315             1.869918             1.194003            0            -0.597823    [8[6[1][1][1]][1]]                                          
  H          -3.161988             1.826491             1.108694            0             0.402573    [1[8[6]]]                                                   
  H          -2.770650             1.809254             3.256604            0             0.031932    [1[6[8][1][1]]]                                             
  H          -1.121342             2.272797             2.978147            0             0.031932    [1[6[8][1][1]]]                                             
  H          -2.354916             3.318122             2.580382            0             0.031932    [1[6[8][1][1]]]                                             
  C          -3.115504             7.001241             2.301586            1             0.099454    [6[8[1]][1][1][1]]                                          
  O          -3.053146             6.462424             0.964257            1            -0.597823    [8[6[1][1][1]][1]]                                          
  H          -2.899011             7.214064             0.348305            1             0.402573    [1[8[6]]]                                                   
  H          -3.798502             7.837995             2.319530            1             0.031932    [1[6[8][1][1]]]                                             
  H          -3.430143             6.398298             3.171585            1             0.031932    [1[6[8][1][1]]]                                             
  H          -2.108414             7.378747             2.531896            1             0.031932    [1[6[8][1][1]]]                                             
