12

  C          -6.988085             5.917320            -1.756806            0             0.099454    [6[8[1]][1][1][1]]                                          
  O          -5.841079             5.346315            -1.198149            0            -0.597823    [8[6[1][1][1]][1]]                                          
  H          -6.238028             4.725105            -0.596400            0             0.402573    [1[8[6]]]                                                   
  H          -7.469596             5.138823            -2.402609            0             0.031932    [1[6[8][1][1]]]                                             
  H          -7.670168             6.304700            -1.043612            0             0.031932    [1[6[8][1][1]]]                                             
  H          -6.732474             6.712058            -2.340388            0             0.031932    [1[6[8][1][1]]]                                             
  C          -3.049772             3.971039             1.999479            1             0.099454    [6[8[1]][1][1][1]]                                          
  O          -4.150856             4.440409             2.744925            1            -0.597823    [8[6[1][1][1]][1]]                                          
  H          -4.224266             5.375310             2.680488            1             0.402573    [1[8[6]]]                                                   
  H          -3.204653             2.957929             1.505377            1             0.031932    [1[6[8][1][1]]]                                             
  H          -2.924149             4.441856             1.049381            1             0.031932    [1[6[8][1][1]]]                                             
  H          -2.092798             4.019810             2.500846            1             0.031932    [1[6[8][1][1]]]                                             
