12

  C          -3.318311            -0.619609            -4.975786            0             0.099454    [6[8[1]][1][1][1]]                                          
  O          -2.848868            -0.188945            -3.711665            0            -0.597823    [8[6[1][1][1]][1]]                                          
  H          -2.709265             0.711760            -3.772373            0             0.402573    [1[8[6]]]                                                   
  H          -2.662649            -0.195860            -5.703031            0             0.031932    [1[6[8][1][1]]]                                             
  H          -3.228268            -1.702189            -5.124246            0             0.031932    [1[6[8][1][1]]]                                             
  H          -4.392851            -0.308560            -5.145854            0             0.031932    [1[6[8][1][1]]]                                             
  C          -1.886966             3.401750            -6.044239            1             0.099454    [6[8[1]][1][1][1]]                                          
  O          -0.921737             4.078071            -6.853895            1            -0.597823    [8[6[1][1][1]][1]]                                          
  H          -0.892529             4.940198            -6.472396            1             0.402573    [1[8[6]]]                                                   
  H          -2.806686             4.015178            -6.070793            1             0.031932    [1[6[8][1][1]]]                                             
  H          -2.034100             2.396483            -6.525987            1             0.031932    [1[6[8][1][1]]]                                             
  H          -1.610210             3.299918            -5.032761            1             0.031932    [1[6[8][1][1]]]                                             
