12

  C           9.292696            -8.407143            -10.959282           0             0.099454    [6[8[1]][1][1][1]]                                          
  O           9.750118            -9.719901            -11.130576           0            -0.597823    [8[6[1][1][1]][1]]                                          
  H           10.356786           -9.725511            -11.852830           0             0.402573    [1[8[6]]]                                                   
  H           8.471294            -8.255547            -11.710006           0             0.031932    [1[6[8][1][1]]]                                             
  H           8.921736            -8.207136            -9.946187            0             0.031932    [1[6[8][1][1]]]                                             
  H           10.158140           -7.646811            -11.149071           0             0.031932    [1[6[8][1][1]]]                                             
  C           5.256288            -8.739026            -11.259800           1             0.099454    [6[8[1]][1][1][1]]                                          
  O           4.955746            -10.034262           -11.001740           1            -0.597823    [8[6[1][1][1]][1]]                                          
  H           4.825855            -10.177167           -10.032646           1             0.402573    [1[8[6]]]                                                   
  H           4.780169            -8.165853            -10.447632           1             0.031932    [1[6[8][1][1]]]                                             
  H           6.319480            -8.645566            -11.159539           1             0.031932    [1[6[8][1][1]]]                                             
  H           4.830450            -8.366351            -12.236812           1             0.031932    [1[6[8][1][1]]]                                             
