12

  C           7.069487             6.948817             1.348319            0             0.099454    [6[8[1]][1][1][1]]                                          
  O           6.833436             7.462442             0.067141            0            -0.597823    [8[6[1][1][1]][1]]                                          
  H           6.469724             6.786522            -0.512093            0             0.402573    [1[8[6]]]                                                   
  H           6.543788             6.020128             1.325691            0             0.031932    [1[6[8][1][1]]]                                             
  H           8.106300             6.629288             1.569079            0             0.031932    [1[6[8][1][1]]]                                             
  H           6.689718             7.616708             2.082214            0             0.031932    [1[6[8][1][1]]]                                             
  C           8.624912             10.634205           -4.484992            1             0.099454    [6[8[1]][1][1][1]]                                          
  O           8.377446             9.432427            -3.867024            1            -0.597823    [8[6[1][1][1]][1]]                                          
  H           8.470871             9.577524            -2.909244            1             0.402573    [1[8[6]]]                                                   
  H           9.698390             10.845328           -4.516165            1             0.031932    [1[6[8][1][1]]]                                             
  H           8.160481             10.843815           -5.491393            1             0.031932    [1[6[8][1][1]]]                                             
  H           8.099689             11.472356           -3.885346            1             0.031932    [1[6[8][1][1]]]                                             
