14

O  2.84042000          -0.89431000          -0.66554000         
C  2.40587000           0.21730000           0.06749000         
C  3.18889000           0.29891000           1.38566000         
O  4.57061000           0.38481000           1.13617000         
C  2.72230000           1.47769000           2.25176000         
O  3.43393000           1.48085000           3.45816000         
H  2.32386000          -0.88562000          -1.51278000         
H  1.32108000           0.11051000           0.29404000         
H  2.57437000           1.14662000          -0.52244000         
H  3.00027000          -0.63863000           1.95354000         
H  4.73414000           1.22299000           0.62890000         
H  1.63494000           1.36697000           2.46341000         
H  2.90117000           2.43213000           1.70662000         
H  3.11353000           2.27100000           3.96582000         
