12

  C          -7.903951             10.391294           -0.645344            0             0.099454    [6[8[1]][1][1][1]]                                          
  O          -6.630779             9.995265            -1.139586            0            -0.597823    [8[6[1][1][1]][1]]                                          
  H          -6.397841             9.364542            -0.501918            0             0.402573    [1[8[6]]]                                                   
  H          -7.977249             11.437374           -0.268366            0             0.031932    [1[6[8][1][1]]]                                             
  H          -8.700423             10.319650           -1.505425            0             0.031932    [1[6[8][1][1]]]                                             
  H          -8.252996             9.818288             0.190959            0             0.031932    [1[6[8][1][1]]]                                             
  C          -3.753317             8.453076            -3.675091            1             0.099454    [6[8[1]][1][1][1]]                                          
  O          -4.805118             8.529794            -2.662201            1            -0.597823    [8[6[1][1][1]][1]]                                          
  H          -4.625615             9.320170            -2.143489            1             0.402573    [1[8[6]]]                                                   
  H          -4.141180             7.732325            -4.512452            1             0.031932    [1[6[8][1][1]]]                                             
  H          -3.737738             9.356105            -4.145281            1             0.031932    [1[6[8][1][1]]]                                             
  H          -2.769466             8.227338            -3.221110            1             0.031932    [1[6[8][1][1]]]                                             
