12

  C           11.122431           -6.628041            -1.890317            0             0.099454    [6[8[1]][1][1][1]]                                          
  O           9.905243            -7.179315            -1.501402            0            -0.597823    [8[6[1][1][1]][1]]                                          
  H           10.068682           -7.746275            -0.749948            0             0.402573    [1[8[6]]]                                                   
  H           10.926274           -6.025471            -2.797524            0             0.031932    [1[6[8][1][1]]]                                             
  H           11.515017           -5.906287            -1.184463            0             0.031932    [1[6[8][1][1]]]                                             
  H           11.829085           -7.345357            -2.185761            0             0.031932    [1[6[8][1][1]]]                                             
  C           6.868651            -8.194354             1.781744            1             0.099454    [6[8[1]][1][1][1]]                                          
  O           6.654157            -7.770481             0.421571            1            -0.597823    [8[6[1][1][1]][1]]                                          
  H           6.873863            -6.813883             0.366752            1             0.402573    [1[8[6]]]                                                   
  H           7.880758            -8.538717             1.956021            1             0.031932    [1[6[8][1][1]]]                                             
  H           6.747013            -7.441927             2.505200            1             0.031932    [1[6[8][1][1]]]                                             
  H           6.150630            -9.074778             1.958401            1             0.031932    [1[6[8][1][1]]]                                             
