12

  C          -6.030512             6.655904             1.816928            0             0.099454    [6[8[1]][1][1][1]]                                          
  O          -5.728468             6.776601             3.218112            0            -0.597823    [8[6[1][1][1]][1]]                                          
  H          -4.798940             6.874311             3.255842            0             0.402573    [1[8[6]]]                                                   
  H          -7.104650             6.813739             1.601745            0             0.031932    [1[6[8][1][1]]]                                             
  H          -5.444522             7.352368             1.185617            0             0.031932    [1[6[8][1][1]]]                                             
  H          -5.877691             5.637061             1.551672            0             0.031932    [1[6[8][1][1]]]                                             
  C          -3.713729             2.994849             5.056679            1             0.099454    [6[8[1]][1][1][1]]                                          
  O          -3.465774             3.785034             3.908871            1            -0.597823    [8[6[1][1][1]][1]]                                          
  H          -3.930081             3.413246             3.108385            1             0.402573    [1[8[6]]]                                                   
  H          -4.720237             2.668428             5.182172            1             0.031932    [1[6[8][1][1]]]                                             
  H          -3.189832             2.010708             5.015684            1             0.031932    [1[6[8][1][1]]]                                             
  H          -3.394363             3.545532             5.974320            1             0.031932    [1[6[8][1][1]]]                                             
