12

  C           3.793136            -2.119971             5.263232            0             0.099454    [6[8[1]][1][1][1]]                                          
  O           4.220589            -3.495471             5.145390            0            -0.597823    [8[6[1][1][1]][1]]                                          
  H           3.619160            -3.900213             4.545235            0             0.402573    [1[8[6]]]                                                   
  H           3.588674            -1.651833             4.345481            0             0.031932    [1[6[8][1][1]]]                                             
  H           2.919482            -2.042182             5.867256            0             0.031932    [1[6[8][1][1]]]                                             
  H           4.566814            -1.552746             5.743861            0             0.031932    [1[6[8][1][1]]]                                             
  C           7.645473            -3.915370             4.272997            1             0.099454    [6[8[1]][1][1][1]]                                          
  O           6.840229            -4.720736             5.101706            1            -0.597823    [8[6[1][1][1]][1]]                                          
  H           5.912074            -4.579328             4.841113            1             0.402573    [1[8[6]]]                                                   
  H           7.152472            -3.749235             3.316764            1             0.031932    [1[6[8][1][1]]]                                             
  H           7.773852            -2.964091             4.696939            1             0.031932    [1[6[8][1][1]]]                                             
  H           8.590248            -4.438842             4.029932            1             0.031932    [1[6[8][1][1]]]                                             
