12

  C           3.793136            -2.119971             5.263232            0             0.099454    [6[8[1]][1][1][1]]                                          
  O           4.220589            -3.495471             5.145390            0            -0.597823    [8[6[1][1][1]][1]]                                          
  H           3.619160            -3.900213             4.545235            0             0.402573    [1[8[6]]]                                                   
  H           3.588674            -1.651833             4.345481            0             0.031932    [1[6[8][1][1]]]                                             
  H           2.919482            -2.042182             5.867256            0             0.031932    [1[6[8][1][1]]]                                             
  H           4.566814            -1.552746             5.743861            0             0.031932    [1[6[8][1][1]]]                                             
  C           4.172070            -4.404791             9.266475            1             0.099454    [6[8[1]][1][1][1]]                                          
  O           4.568291            -5.770132             9.094948            1            -0.597823    [8[6[1][1][1]][1]]                                          
  H           5.481680            -5.952398             9.237084            1             0.402573    [1[8[6]]]                                                   
  H           3.093478            -4.262770             9.240783            1             0.031932    [1[6[8][1][1]]]                                             
  H           4.577018            -4.151827             10.280328           1             0.031932    [1[6[8][1][1]]]                                             
  H           4.635899            -3.712360             8.532662            1             0.031932    [1[6[8][1][1]]]                                             
