12

  C          -2.565252             4.718114            -0.085181            0             0.099454    [6[8[1]][1][1][1]]                                          
  O          -2.001019             4.805665            -1.430314            0            -0.597823    [8[6[1][1][1]][1]]                                          
  H          -1.240345             5.338943            -1.221299            0             0.402573    [1[8[6]]]                                                   
  H          -1.779562             4.387065             0.613376            0             0.031932    [1[6[8][1][1]]]                                             
  H          -2.893558             5.626545             0.347260            0             0.031932    [1[6[8][1][1]]]                                             
  H          -3.394099             4.098800             0.009473            0             0.031932    [1[6[8][1][1]]]                                             
  C          -3.658527             9.864474             0.998083            1             0.099454    [6[8[1]][1][1][1]]                                          
  O          -3.035005             8.704219             0.723250            1            -0.597823    [8[6[1][1][1]][1]]                                          
  H          -3.092916             8.099042             1.478652            1             0.402573    [1[8[6]]]                                                   
  H          -3.529899             10.086629            2.048917            1             0.031932    [1[6[8][1][1]]]                                             
  H          -3.352869             10.684244            0.445372            1             0.031932    [1[6[8][1][1]]]                                             
  H          -4.764026             9.848275             0.938371            1             0.031932    [1[6[8][1][1]]]                                             
