12

  C           0.239107            -9.725760             3.563550            0             0.099454    [6[8[1]][1][1][1]]                                          
  O          -0.325960            -9.806708             2.226705            0            -0.597823    [8[6[1][1][1]][1]]                                          
  H           0.314450            -10.098638            1.586949            0             0.402573    [1[8[6]]]                                                   
  H           1.249586            -9.222974             3.675815            0             0.031932    [1[6[8][1][1]]]                                             
  H          -0.403865            -9.285869             4.365776            0             0.031932    [1[6[8][1][1]]]                                             
  H           0.587013            -10.629534            3.927197            0             0.031932    [1[6[8][1][1]]]                                             
  C          -2.360848            -11.269574            0.153175            1             0.099454    [6[8[1]][1][1][1]]                                          
  O          -2.669773            -10.086168            0.843958            1            -0.597823    [8[6[1][1][1]][1]]                                          
  H          -2.098226            -9.848355             1.558592            1             0.402573    [1[8[6]]]                                                   
  H          -2.665306            -11.182186           -0.862488            1             0.031932    [1[6[8][1][1]]]                                             
  H          -1.221713            -11.329590            0.107175            1             0.031932    [1[6[8][1][1]]]                                             
  H          -2.787678            -12.185910            0.578291            1             0.031932    [1[6[8][1][1]]]                                             
