12

  C           2.453454             1.166860            -5.874115            0             0.099454    [6[8[1]][1][1][1]]                                          
  O           3.686145             1.240109            -5.184784            0            -0.597823    [8[6[1][1][1]][1]]                                          
  H           3.920853             2.166736            -5.242162            0             0.402573    [1[8[6]]]                                                   
  H           1.624176             1.779049            -5.362332            0             0.031932    [1[6[8][1][1]]]                                             
  H           2.542419             1.779453            -6.767790            0             0.031932    [1[6[8][1][1]]]                                             
  H           2.112095             0.179773            -6.170195            0             0.031932    [1[6[8][1][1]]]                                             
  C           3.033606             5.650073            -5.770058            1             0.099454    [6[8[1]][1][1][1]]                                          
  O           2.795399             4.344122            -5.250891            1            -0.597823    [8[6[1][1][1]][1]]                                          
  H           1.932104             4.467012            -4.856824            1             0.402573    [1[8[6]]]                                                   
  H           2.852258             6.364832            -4.980401            1             0.031932    [1[6[8][1][1]]]                                             
  H           4.038197             5.794201            -6.047904            1             0.031932    [1[6[8][1][1]]]                                             
  H           2.378777             5.976326            -6.520583            1             0.031932    [1[6[8][1][1]]]                                             
