12

  C          -8.337797             2.416175             5.163144            0             0.099454    [6[8[1]][1][1][1]]                                          
  O          -7.836893             3.630064             5.649020            0            -0.597823    [8[6[1][1][1]][1]]                                          
  H          -8.642181             4.245374             5.763971            0             0.402573    [1[8[6]]]                                                   
  H          -7.568641             1.935078             4.537271            0             0.031932    [1[6[8][1][1]]]                                             
  H          -8.594351             1.681504             5.898508            0             0.031932    [1[6[8][1][1]]]                                             
  H          -9.204598             2.572450             4.608800            0             0.031932    [1[6[8][1][1]]]                                             
  C          -5.632659             5.085313             3.590567            1             0.099454    [6[8[1]][1][1][1]]                                          
  O          -5.862079             5.490800             4.879194            1            -0.597823    [8[6[1][1][1]][1]]                                          
  H          -6.522953             4.845330             5.158301            1             0.402573    [1[8[6]]]                                                   
  H          -5.175815             4.020753             3.644523            1             0.031932    [1[6[8][1][1]]]                                             
  H          -6.566947             4.897796             3.005638            1             0.031932    [1[6[8][1][1]]]                                             
  H          -5.058881             5.782737             3.034811            1             0.031932    [1[6[8][1][1]]]                                             
