12

  C          -7.729322             4.427341             8.202547            0             0.099454    [6[8[1]][1][1][1]]                                          
  O          -7.019809             3.335802             7.681465            0            -0.597823    [8[6[1][1][1]][1]]                                          
  H          -7.560810             2.547871             7.585349            0             0.402573    [1[8[6]]]                                                   
  H          -8.077797             4.298807             9.202275            0             0.031932    [1[6[8][1][1]]]                                             
  H          -7.121937             5.329664             8.121222            0             0.031932    [1[6[8][1][1]]]                                             
  H          -8.610645             4.817844             7.611276            0             0.031932    [1[6[8][1][1]]]                                             
  C          -4.351667             5.254473             6.920647            1             0.099454    [6[8[1]][1][1][1]]                                          
  O          -5.704513             5.376898             6.739659            1            -0.597823    [8[6[1][1][1]][1]]                                          
  H          -5.942629             5.492009             5.833962            1             0.402573    [1[8[6]]]                                                   
  H          -4.171133             4.701593             7.857598            1             0.031932    [1[6[8][1][1]]]                                             
  H          -3.847408             4.840025             6.094159            1             0.031932    [1[6[8][1][1]]]                                             
  H          -3.916681             6.286763             6.979087            1             0.031932    [1[6[8][1][1]]]                                             
