12

  C          -4.746335             2.880887            -0.234083            0             0.099454    [6[8[1]][1][1][1]]                                          
  O          -3.568935             2.925148             0.647374            0            -0.597823    [8[6[1][1][1]][1]]                                          
  H          -2.796051             2.897875             0.080328            0             0.402573    [1[8[6]]]                                                   
  H          -5.155526             3.875728            -0.398932            0             0.031932    [1[6[8][1][1]]]                                             
  H          -4.485468             2.291806            -1.159059            0             0.031932    [1[6[8][1][1]]]                                             
  H          -5.556382             2.300064             0.263460            0             0.031932    [1[6[8][1][1]]]                                             
  C          -1.507390             1.154501             3.586945            1             0.099454    [6[8[1]][1][1][1]]                                          
  O          -2.170510             2.402761             3.694004            1            -0.597823    [8[6[1][1][1]][1]]                                          
  H          -2.738338             2.516325             2.930582            1             0.402573    [1[8[6]]]                                                   
  H          -0.792150             1.052577             4.403646            1             0.031932    [1[6[8][1][1]]]                                             
  H          -2.124443             0.255359             3.494135            1             0.031932    [1[6[8][1][1]]]                                             
  H          -0.882122             1.146564             2.670415            1             0.031932    [1[6[8][1][1]]]                                             
