12

  C           3.390229            -8.763379             8.206568            0             0.099454    [6[8[1]][1][1][1]]                                          
  O           2.293317            -8.817549             7.273787            0            -0.597823    [8[6[1][1][1]][1]]                                          
  H           1.603742            -8.200066             7.583275            0             0.402573    [1[8[6]]]                                                   
  H           4.340334            -8.858161             7.725690            0             0.031932    [1[6[8][1][1]]]                                             
  H           3.457738            -7.764749             8.617547            0             0.031932    [1[6[8][1][1]]]                                             
  H           3.260541            -9.496691             9.021267            0             0.031932    [1[6[8][1][1]]]                                             
  C           4.927070            -7.136852             4.687210            1             0.099454    [6[8[1]][1][1][1]]                                          
  O           3.481489            -7.286531             4.707330            1            -0.597823    [8[6[1][1][1]][1]]                                          
  H           3.231415            -7.831343             5.483614            1             0.402573    [1[8[6]]]                                                   
  H           5.359156            -6.790389             3.759214            1             0.031932    [1[6[8][1][1]]]                                             
  H           5.171913            -6.330077             5.394438            1             0.031932    [1[6[8][1][1]]]                                             
  H           5.407996            -8.090754             4.960268            1             0.031932    [1[6[8][1][1]]]                                             
