12

  C          -9.312661            -8.723315             0.015196            0             0.099454    [6[8[1]][1][1][1]]                                          
  O          -10.497548           -9.415589            -0.222541            0            -0.597823    [8[6[1][1][1]][1]]                                          
  H          -10.437662           -9.884623            -1.059188            0             0.402573    [1[8[6]]]                                                   
  H          -9.266104            -8.402779             1.095260            0             0.031932    [1[6[8][1][1]]]                                             
  H          -8.411689            -9.399035            -0.151624            0             0.031932    [1[6[8][1][1]]]                                             
  H          -9.040852            -7.889552            -0.646920            0             0.031932    [1[6[8][1][1]]]                                             
  C          -10.855573           -11.085070           -2.870032            1             0.099454    [6[8[1]][1][1][1]]                                          
  O          -9.669875            -10.988829           -2.094075            1            -0.597823    [8[6[1][1][1]][1]]                                          
  H          -8.850628            -11.052110           -2.622754            1             0.402573    [1[8[6]]]                                                   
  H          -10.806833           -10.564567           -3.839186            1             0.031932    [1[6[8][1][1]]]                                             
  H          -10.988498           -12.153725           -3.110980            1             0.031932    [1[6[8][1][1]]]                                             
  H          -11.705414           -10.595916           -2.347252            1             0.031932    [1[6[8][1][1]]]                                             
