12

  C           6.579677            -4.656054             2.098122            0             0.099454    [6[8[1]][1][1][1]]                                          
  O           6.418017            -5.253259             3.379541            0            -0.597823    [8[6[1][1][1]][1]]                                          
  H           5.507121            -5.599913             3.333520            0             0.402573    [1[8[6]]]                                                   
  H           5.924402            -3.782596             1.864666            0             0.031932    [1[6[8][1][1]]]                                             
  H           7.523478            -4.087973             1.999012            0             0.031932    [1[6[8][1][1]]]                                             
  H           6.439044            -5.427651             1.315982            0             0.031932    [1[6[8][1][1]]]                                             
  C           5.160119            -4.518508            -1.480591            1             0.099454    [6[8[1]][1][1][1]]                                          
  O           6.307349            -3.679778            -1.437952            1            -0.597823    [8[6[1][1][1]][1]]                                          
  H           6.918061            -4.117089            -2.025001            1             0.402573    [1[8[6]]]                                                   
  H           4.300942            -3.910907            -1.216338            1             0.031932    [1[6[8][1][1]]]                                             
  H           4.971459            -5.059759            -2.422785            1             0.031932    [1[6[8][1][1]]]                                             
  H           5.262418            -5.328838            -0.725788            1             0.031932    [1[6[8][1][1]]]                                             
