12

  C           1.789285             9.798423            -2.464702            0             0.099454    [6[8[1]][1][1][1]]                                          
  O           2.889570             10.586637           -2.007297            0            -0.597823    [8[6[1][1][1]][1]]                                          
  H           2.798921             10.643839           -1.020595            0             0.402573    [1[8[6]]]                                                   
  H           1.306149             10.392855           -3.281718            0             0.031932    [1[6[8][1][1]]]                                             
  H           2.071224             8.818361            -2.858965            0             0.031932    [1[6[8][1][1]]]                                             
  H           0.975558             9.695420            -1.724452            0             0.031932    [1[6[8][1][1]]]                                             
  C           1.563923             4.822854            -2.055716            1             0.099454    [6[8[1]][1][1][1]]                                          
  O           1.026069             5.666654            -3.070397            1            -0.597823    [8[6[1][1][1]][1]]                                          
  H           1.205890             5.204161            -3.879448            1             0.402573    [1[8[6]]]                                                   
  H           1.124852             3.829493            -2.152610            1             0.031932    [1[6[8][1][1]]]                                             
  H           2.630486             4.837886            -2.065390            1             0.031932    [1[6[8][1][1]]]                                             
  H           1.210527             5.130865            -1.082344            1             0.031932    [1[6[8][1][1]]]                                             
