12

  C           5.736915             6.096399            -5.489844            0             0.099454    [6[8[1]][1][1][1]]                                          
  O           5.154897             4.938208            -6.015251            0            -0.597823    [8[6[1][1][1]][1]]                                          
  H           5.492586             4.122501            -5.681083            0             0.402573    [1[8[6]]]                                                   
  H           5.357355             6.307799            -4.486453            0             0.031932    [1[6[8][1][1]]]                                             
  H           6.834772             6.055645            -5.421734            0             0.031932    [1[6[8][1][1]]]                                             
  H           5.315370             6.965713            -6.146136            0             0.031932    [1[6[8][1][1]]]                                             
  C           3.771082            -0.084111            -5.364219            1             0.099454    [6[8[1]][1][1][1]]                                          
  O           2.789198             0.944553            -5.009210            1            -0.597823    [8[6[1][1][1]][1]]                                          
  H           2.732328             1.510619            -5.748746            1             0.402573    [1[8[6]]]                                                   
  H           4.269562            -0.378328            -4.423374            1             0.031932    [1[6[8][1][1]]]                                             
  H           3.274497            -0.961496            -5.774441            1             0.031932    [1[6[8][1][1]]]                                             
  H           4.520300             0.267564            -5.941169            1             0.031932    [1[6[8][1][1]]]                                             
