12

  C          -10.950893           -9.469904            -2.006202            0             0.099454    [6[8[1]][1][1][1]]                                          
  O          -10.990471           -9.388457            -0.567786            0            -0.597823    [8[6[1][1][1]][1]]                                          
  H          -10.061460           -9.614233            -0.357043            0             0.402573    [1[8[6]]]                                                   
  H          -10.222261           -8.662454            -2.481418            0             0.031932    [1[6[8][1][1]]]                                             
  H          -10.581003           -10.428392           -2.335062            0             0.031932    [1[6[8][1][1]]]                                             
  H          -11.919247           -9.264990            -2.477511            0             0.031932    [1[6[8][1][1]]]                                             
  C          -7.883500            -7.945834             0.809314            1             0.099454    [6[8[1]][1][1][1]]                                          
  O          -8.193881            -9.057241             0.024582            1            -0.597823    [8[6[1][1][1]][1]]                                          
  H          -7.296062            -9.387903            -0.184469            1             0.402573    [1[8[6]]]                                                   
  H          -8.068939            -7.101845             0.156294            1             0.031932    [1[6[8][1][1]]]                                             
  H          -8.598682            -7.878497             1.604359            1             0.031932    [1[6[8][1][1]]]                                             
  H          -6.871748            -7.933282             1.248646            1             0.031932    [1[6[8][1][1]]]                                             
