12

  C          -3.609709            -6.212238             11.084964           0             0.099454    [6[8[1]][1][1][1]]                                          
  O          -4.364734            -5.445713             10.082139           0            -0.597823    [8[6[1][1][1]][1]]                                          
  H          -4.900436            -4.779414             10.518448           0             0.402573    [1[8[6]]]                                                   
  H          -3.996064            -6.014864             12.063790           0             0.031932    [1[6[8][1][1]]]                                             
  H          -3.631724            -7.334633             10.985328           0             0.031932    [1[6[8][1][1]]]                                             
  H          -2.523652            -5.863047             11.239573           0             0.031932    [1[6[8][1][1]]]                                             
  C           1.126425            -7.979691             8.688435            1             0.099454    [6[8[1]][1][1][1]]                                          
  O           0.167515            -7.011438             8.689688            1            -0.597823    [8[6[1][1][1]][1]]                                          
  H          -0.711181            -7.413790             8.442444            1             0.402573    [1[8[6]]]                                                   
  H           1.685178            -7.866956             9.647331            1             0.031932    [1[6[8][1][1]]]                                             
  H           0.695395            -8.997913             8.613979            1             0.031932    [1[6[8][1][1]]]                                             
  H           1.773083            -7.918611             7.867989            1             0.031932    [1[6[8][1][1]]]                                             
