12

  C           1.357016            -4.144993            -10.981236           0             0.099454    [6[8[1]][1][1][1]]                                          
  O           0.027472            -4.230226            -11.449429           0            -0.597823    [8[6[1][1][1]][1]]                                          
  H          -0.609732            -4.116617            -10.744449           0             0.402573    [1[8[6]]]                                                   
  H           1.503885            -3.179850            -10.444601           0             0.031932    [1[6[8][1][1]]]                                             
  H           1.556631            -4.875398            -10.229939           0             0.031932    [1[6[8][1][1]]]                                             
  H           2.132881            -4.103547            -11.830028           0             0.031932    [1[6[8][1][1]]]                                             
  C          -3.375293            -4.371187            -11.085779           1             0.099454    [6[8[1]][1][1][1]]                                          
  O          -3.565899            -3.036521            -10.753621           1            -0.597823    [8[6[1][1][1]][1]]                                          
  H          -4.492599            -2.863608            -10.785166           1             0.402573    [1[8[6]]]                                                   
  H          -2.646114            -4.498764            -11.924313           1             0.031932    [1[6[8][1][1]]]                                             
  H          -2.873743            -4.873393            -10.315072           1             0.031932    [1[6[8][1][1]]]                                             
  H          -4.377217            -4.896034            -11.305137           1             0.031932    [1[6[8][1][1]]]                                             
