12

  C          -0.939052            -8.127681             1.759857            0             0.099454    [6[8[1]][1][1][1]]                                          
  O          -2.146726            -8.792579             1.430857            0            -0.597823    [8[6[1][1][1]][1]]                                          
  H          -1.913014            -9.269738             0.629961            0             0.402573    [1[8[6]]]                                                   
  H          -0.962725            -7.226038             2.449969            0             0.031932    [1[6[8][1][1]]]                                             
  H          -0.312505            -8.902315             2.236363            0             0.031932    [1[6[8][1][1]]]                                             
  H          -0.412223            -7.730860             0.825161            0             0.031932    [1[6[8][1][1]]]                                             
  C          -5.076573            -6.879441             1.705663            1             0.099454    [6[8[1]][1][1][1]]                                          
  O          -3.866430            -6.551945             2.291352            1            -0.597823    [8[6[1][1][1]][1]]                                          
  H          -3.217793            -7.265157             2.074985            1             0.402573    [1[8[6]]]                                                   
  H          -5.829489            -6.212226             1.964640            1             0.031932    [1[6[8][1][1]]]                                             
  H          -5.003095            -6.860190             0.617543            1             0.031932    [1[6[8][1][1]]]                                             
  H          -5.416746            -7.881705             2.055767            1             0.031932    [1[6[8][1][1]]]                                             
