12

  C          -3.510231            -1.086601            -3.537600            0             0.099454    [6[8[1]][1][1][1]]                                          
  O          -4.343705            -1.752611            -4.437602            0            -0.597823    [8[6[1][1][1]][1]]                                          
  H          -5.224240            -1.403687            -4.477860            0             0.402573    [1[8[6]]]                                                   
  H          -4.049414            -0.835512            -2.615135            0             0.031932    [1[6[8][1][1]]]                                             
  H          -2.571821            -1.682410            -3.278911            0             0.031932    [1[6[8][1][1]]]                                             
  H          -3.190376            -0.068218            -3.952758            0             0.031932    [1[6[8][1][1]]]                                             
  C          -5.938019             1.396045            -1.010357            1             0.099454    [6[8[1]][1][1][1]]                                          
  O          -5.780449             2.649759            -0.478520            1            -0.597823    [8[6[1][1][1]][1]]                                          
  H          -5.146989             3.115646            -1.048343            1             0.402573    [1[8[6]]]                                                   
  H          -5.745337             1.479658            -2.080329            1             0.031932    [1[6[8][1][1]]]                                             
  H          -5.070851             0.715713            -0.818665            1             0.031932    [1[6[8][1][1]]]                                             
  H          -6.876233             0.889256            -0.793456            1             0.031932    [1[6[8][1][1]]]                                             
