12

  C           6.664978             3.067073             1.226311            0             0.099454    [6[8[1]][1][1][1]]                                          
  O           8.059023             2.989451             1.564592            0            -0.597823    [8[6[1][1][1]][1]]                                          
  H           8.160365             2.945944             2.478638            0             0.402573    [1[8[6]]]                                                   
  H           6.091341             2.145018             1.217380            0             0.031932    [1[6[8][1][1]]]                                             
  H           6.072127             3.731938             1.852075            0             0.031932    [1[6[8][1][1]]]                                             
  H           6.459341             3.559162             0.310594            0             0.031932    [1[6[8][1][1]]]                                             
  C           7.313492             5.352219            -3.875000            1             0.099454    [6[8[1]][1][1][1]]                                          
  O           8.583517             5.934951            -3.688472            1            -0.597823    [8[6[1][1][1]][1]]                                          
  H           8.912932             5.914960            -4.629453            1             0.402573    [1[8[6]]]                                                   
  H           6.701947             5.408958            -2.954834            1             0.031932    [1[6[8][1][1]]]                                             
  H           6.815108             5.840686            -4.748789            1             0.031932    [1[6[8][1][1]]]                                             
  H           7.336305             4.377788            -4.229219            1             0.031932    [1[6[8][1][1]]]                                             
