12

  C          -10.695807           -6.649651             4.959832            0             0.099454    [6[8[1]][1][1][1]]                                          
  O          -11.428309           -5.754532             5.794819            0            -0.597823    [8[6[1][1][1]][1]]                                          
  H          -12.313601           -5.589736             5.453743            0             0.402573    [1[8[6]]]                                                   
  H          -11.365032           -7.374430             4.521126            0             0.031932    [1[6[8][1][1]]]                                             
  H          -10.312134           -6.161509             4.072612            0             0.031932    [1[6[8][1][1]]]                                             
  H          -9.801205            -7.105240             5.391306            0             0.031932    [1[6[8][1][1]]]                                             
  C          -11.181573           -6.523769             8.983289            1             0.099454    [6[8[1]][1][1][1]]                                          
  O          -10.070327           -5.877747             9.523657            1            -0.597823    [8[6[1][1][1]][1]]                                          
  H          -9.469174            -5.712060             8.772213            1             0.402573    [1[8[6]]]                                                   
  H          -12.071394           -5.910952             8.875676            1             0.031932    [1[6[8][1][1]]]                                             
  H          -11.053050           -6.945512             7.970016            1             0.031932    [1[6[8][1][1]]]                                             
  H          -11.536426           -7.355774             9.579766            1             0.031932    [1[6[8][1][1]]]                                             
