12

  C           6.352193             4.195746            -4.190666            0             0.099454    [6[8[1]][1][1][1]]                                          
  O           5.100575             4.500113            -4.616961            0            -0.597823    [8[6[1][1][1]][1]]                                          
  H           4.495087             4.304367            -3.860152            0             0.402573    [1[8[6]]]                                                   
  H           7.093230             4.700914            -4.815245            0             0.031932    [1[6[8][1][1]]]                                             
  H           6.551793             4.589563            -3.174605            0             0.031932    [1[6[8][1][1]]]                                             
  H           6.623159             3.143777            -4.209572            0             0.031932    [1[6[8][1][1]]]                                             
  C           3.328778             5.216020            -0.430047            1             0.099454    [6[8[1]][1][1][1]]                                          
  O           4.347338             5.363856            -1.385771            1            -0.597823    [8[6[1][1][1]][1]]                                          
  H           4.637568             6.277139            -1.392109            1             0.402573    [1[8[6]]]                                                   
  H           2.449465             5.800747            -0.724251            1             0.031932    [1[6[8][1][1]]]                                             
  H           2.975368             4.180181            -0.373804            1             0.031932    [1[6[8][1][1]]]                                             
  H           3.548815             5.555895             0.596199            1             0.031932    [1[6[8][1][1]]]                                             
