12

  C          -2.473489             2.754382            -3.587635            0             0.099454    [6[8[1]][1][1][1]]                                          
  O          -2.443331             4.137999            -3.468418            0            -0.597823    [8[6[1][1][1]][1]]                                          
  H          -2.406738             4.647574            -4.288539            0             0.402573    [1[8[6]]]                                                   
  H          -1.822514             2.438176            -4.417710            0             0.031932    [1[6[8][1][1]]]                                             
  H          -2.095098             2.370439            -2.644488            0             0.031932    [1[6[8][1][1]]]                                             
  H          -3.458589             2.327411            -3.868728            0             0.031932    [1[6[8][1][1]]]                                             
  C          -7.220096             6.994983            -1.251529            1             0.099454    [6[8[1]][1][1][1]]                                          
  O          -5.864312             6.616557            -1.059694            1            -0.597823    [8[6[1][1][1]][1]]                                          
  H          -5.438133             6.373003            -1.911575            1             0.402573    [1[8[6]]]                                                   
  H          -7.354863             8.098564            -1.220289            1             0.031932    [1[6[8][1][1]]]                                             
  H          -7.641321             6.615073            -2.156346            1             0.031932    [1[6[8][1][1]]]                                             
  H          -7.859570             6.551375            -0.455189            1             0.031932    [1[6[8][1][1]]]                                             
