12

  C           5.356239             0.575091             7.861730            0             0.099454    [6[8[1]][1][1][1]]                                          
  O           5.092971             1.322461             6.696982            0            -0.597823    [8[6[1][1][1]][1]]                                          
  H           4.968646             0.716571             5.949532            0             0.402573    [1[8[6]]]                                                   
  H           5.774221             1.189268             8.691426            0             0.031932    [1[6[8][1][1]]]                                             
  H           4.499093             0.072589             8.225889            0             0.031932    [1[6[8][1][1]]]                                             
  H           6.158912            -0.140826             7.547524            0             0.031932    [1[6[8][1][1]]]                                             
  C           7.502081             4.156317             6.119983            1             0.099454    [6[8[1]][1][1][1]]                                          
  O           6.283258             4.173866             6.913367            1            -0.597823    [8[6[1][1][1]][1]]                                          
  H           6.005485             3.281931             7.057697            1             0.402573    [1[8[6]]]                                                   
  H           7.518540             3.199391             5.644552            1             0.031932    [1[6[8][1][1]]]                                             
  H           7.481914             4.886352             5.317469            1             0.031932    [1[6[8][1][1]]]                                             
  H           8.423876             4.297298             6.684826            1             0.031932    [1[6[8][1][1]]]                                             
