6
Coordinates from ORCA-job 9_geo_opt
  C   3.01118033465271     -1.18117560939970      0.59855280233350
  O   4.39406878184271     -1.12483511218108      0.87677756735918
  H   4.77180894436753     -0.37782703850371      0.41188396449550
  H   2.80697794747369     -1.31879747062133     -0.46939338403147
  H   2.61121379024918     -2.04020125146295      1.13612574116018
  H   2.48846120141419     -0.28299751783122      0.94693130868312
