12

  C           2.238468            -1.442492            -1.376394            0             0.099454    [6[8[1]][1][1][1]]                                          
  O           1.121689            -1.733540            -0.514272            0            -0.597823    [8[6[1][1][1]][1]]                                          
  H           1.431541            -2.499082            -0.058163            0             0.402573    [1[8[6]]]                                                   
  H           3.190386            -1.760322            -0.835746            0             0.031932    [1[6[8][1][1]]]                                             
  H           2.025457            -1.974779            -2.354060            0             0.031932    [1[6[8][1][1]]]                                             
  H           2.293692            -0.377440            -1.575006            0             0.031932    [1[6[8][1][1]]]                                             
  C          -0.823305             0.756648             0.372796            1             0.099454    [6[8[1]][1][1][1]]                                          
  O          -1.029271            -0.427082             1.079613            1            -0.597823    [8[6[1][1][1]][1]]                                          
  H          -0.643484            -1.120501             0.491262            1             0.402573    [1[8[6]]]                                                   
  H          -1.596986             0.832621            -0.419823            1             0.031932    [1[6[8][1][1]]]                                             
  H          -0.919272             1.620018             1.035924            1             0.031932    [1[6[8][1][1]]]                                             
  H           0.173242             0.883099             0.019278            1             0.031932    [1[6[8][1][1]]]                                             
