12

  C           8.152796             8.556054            -5.321419            0             0.099454    [6[8[1]][1][1][1]]                                          
  O           6.909219             9.044673            -4.812207            0            -0.597823    [8[6[1][1][1]][1]]                                          
  H           6.285718             8.702034            -5.470259            0             0.402573    [1[8[6]]]                                                   
  H           8.064256             8.349003            -6.365875            0             0.031932    [1[6[8][1][1]]]                                             
  H           9.010342             9.257000            -5.240811            0             0.031932    [1[6[8][1][1]]]                                             
  H           8.377186             7.606242            -4.788367            0             0.031932    [1[6[8][1][1]]]                                             
  C           9.131496             8.642149            -10.889142           1             0.099454    [6[8[1]][1][1][1]]                                          
  O           8.416454             7.496642            -11.255507           1            -0.597823    [8[6[1][1][1]][1]]                                          
  H           7.910878             7.238208            -10.442181           1             0.402573    [1[8[6]]]                                                   
  H           8.768745             9.228676            -10.007910           1             0.031932    [1[6[8][1][1]]]                                             
  H           10.229135            8.312411            -10.763482           1             0.031932    [1[6[8][1][1]]]                                             
  H           9.056931             9.478766            -11.595643           1             0.031932    [1[6[8][1][1]]]                                             
