12

  C          -1.479890            -2.782146            -10.347695           0             0.099454    [6[8[1]][1][1][1]]                                          
  O          -2.119262            -3.328411            -11.446586           0            -0.597823    [8[6[1][1][1]][1]]                                          
  H          -1.445049            -3.506653            -12.123038           0             0.402573    [1[8[6]]]                                                   
  H          -2.045989            -2.790401            -9.457301            0             0.031932    [1[6[8][1][1]]]                                             
  H          -0.487859            -3.274771            -10.077993           0             0.031932    [1[6[8][1][1]]]                                             
  H          -1.208709            -1.733125            -10.415487           0             0.031932    [1[6[8][1][1]]]                                             
  C          -3.888145             1.871441            -9.901667            1             0.099454    [6[8[1]][1][1][1]]                                          
  O          -2.887328             1.541876            -10.844331           1            -0.597823    [8[6[1][1][1]][1]]                                          
  H          -2.057649             1.745419            -10.528720           1             0.402573    [1[8[6]]]                                                   
  H          -4.007914             2.958215            -9.898934            1             0.031932    [1[6[8][1][1]]]                                             
  H          -4.899281             1.516543            -10.079027           1             0.031932    [1[6[8][1][1]]]                                             
  H          -3.612215             1.511664            -8.924497            1             0.031932    [1[6[8][1][1]]]                                             
