12

  C          -5.694663             5.855385             7.654485            0             0.099454    [6[8[1]][1][1][1]]                                          
  O          -6.732413             4.908999             7.753493            0            -0.597823    [8[6[1][1][1]][1]]                                          
  H          -6.902734             4.785585             8.716413            0             0.402573    [1[8[6]]]                                                   
  H          -5.860336             6.901046             8.030014            0             0.031932    [1[6[8][1][1]]]                                             
  H          -4.748003             5.517548             8.206239            0             0.031932    [1[6[8][1][1]]]                                             
  H          -5.409941             5.988484             6.609934            0             0.031932    [1[6[8][1][1]]]                                             
  C          -10.666586            6.170004             7.379040            1             0.099454    [6[8[1]][1][1][1]]                                          
  O          -9.388597             6.730115             7.666832            1            -0.597823    [8[6[1][1][1]][1]]                                          
  H          -9.030855             6.074726             8.273595            1             0.402573    [1[8[6]]]                                                   
  H          -10.579796            5.389328             6.632347            1             0.031932    [1[6[8][1][1]]]                                             
  H          -11.206953            5.813961             8.258117            1             0.031932    [1[6[8][1][1]]]                                             
  H          -11.338197            6.898254             6.829734            1             0.031932    [1[6[8][1][1]]]                                             
