12

  C           3.221137             7.634066             8.195643            0             0.099454    [6[8[1]][1][1][1]]                                          
  O           3.982834             7.118366             9.205529            0            -0.597823    [8[6[1][1][1]][1]]                                          
  H           4.894659             7.152275             8.965242            0             0.402573    [1[8[6]]]                                                   
  H           3.626544             8.552249             7.826368            0             0.031932    [1[6[8][1][1]]]                                             
  H           3.290289             6.915142             7.335799            0             0.031932    [1[6[8][1][1]]]                                             
  H           2.201108             7.700457             8.443460            0             0.031932    [1[6[8][1][1]]]                                             
  C           2.459447             7.886722             3.529266            1             0.099454    [6[8[1]][1][1][1]]                                          
  O           1.465592             6.957160             3.094723            1            -0.597823    [8[6[1][1][1]][1]]                                          
  H           1.096013             6.573522             3.861454            1             0.402573    [1[8[6]]]                                                   
  H           2.129671             8.719653             4.158826            1             0.031932    [1[6[8][1][1]]]                                             
  H           3.070522             7.379133             4.242698            1             0.031932    [1[6[8][1][1]]]                                             
  H           3.028152             8.221508             2.643044            1             0.031932    [1[6[8][1][1]]]                                             
