12

  C           4.599833             1.923888             6.602593            0             0.099454    [6[8[1]][1][1][1]]                                          
  O           3.786116             2.729609             7.484004            0            -0.597823    [8[6[1][1][1]][1]]                                          
  H           3.607876             3.440949             6.897519            0             0.402573    [1[8[6]]]                                                   
  H           5.455821             2.534420             6.223668            0             0.031932    [1[6[8][1][1]]]                                             
  H           5.103900             1.124986             7.097621            0             0.031932    [1[6[8][1][1]]]                                             
  H           4.070648             1.512387             5.743250            0             0.031932    [1[6[8][1][1]]]                                             
  C           1.273106            -1.090796             4.502360            1             0.099454    [6[8[1]][1][1][1]]                                          
  O           2.124407            -0.962128             3.463124            1            -0.597823    [8[6[1][1][1]][1]]                                          
  H           1.972989            -1.685681             2.887685            1             0.402573    [1[8[6]]]                                                   
  H           0.415376            -1.764596             4.340729            1             0.031932    [1[6[8][1][1]]]                                             
  H           1.825352            -1.582029             5.301088            1             0.031932    [1[6[8][1][1]]]                                             
  H           0.854606            -0.187528             4.906061            1             0.031932    [1[6[8][1][1]]]                                             
