12

  C          -1.761067             5.722091            -2.002277            0             0.099454    [6[8[1]][1][1][1]]                                          
  O          -1.949604             4.450320            -2.319201            0            -0.597823    [8[6[1][1][1]][1]]                                          
  H          -2.743328             3.992807            -2.075747            0             0.402573    [1[8[6]]]                                                   
  H          -2.692750             6.144057            -1.678658            0             0.031932    [1[6[8][1][1]]]                                             
  H          -0.954174             5.871586            -1.341224            0             0.031932    [1[6[8][1][1]]]                                             
  H          -1.561292             6.309232            -2.952997            0             0.031932    [1[6[8][1][1]]]                                             
  C          -5.532352             1.521429            -4.986834            1             0.099454    [6[8[1]][1][1][1]]                                          
  O          -5.929493             2.059288            -3.744234            1            -0.597823    [8[6[1][1][1]][1]]                                          
  H          -5.385958             2.828301            -3.642485            1             0.402573    [1[8[6]]]                                                   
  H          -6.063086             0.587966            -5.388403            1             0.031932    [1[6[8][1][1]]]                                             
  H          -5.649632             2.148666            -5.799708            1             0.031932    [1[6[8][1][1]]]                                             
  H          -4.452521             1.444972            -5.075906            1             0.031932    [1[6[8][1][1]]]                                             
