12

  C          -9.648259            -7.114879             0.808518            0             0.099454    [6[8[1]][1][1][1]]                                          
  O          -10.714223           -6.721313             1.572976            0            -0.597823    [8[6[1][1][1]][1]]                                          
  H          -11.489091           -7.226045             1.245931            0             0.402573    [1[8[6]]]                                                   
  H          -8.693586            -6.596970             1.099219            0             0.031932    [1[6[8][1][1]]]                                             
  H          -9.395222            -8.139283             0.973610            0             0.031932    [1[6[8][1][1]]]                                             
  H          -9.822167            -7.014202            -0.280292            0             0.031932    [1[6[8][1][1]]]                                             
  C          -10.168091           -2.949114             0.261102            1             0.099454    [6[8[1]][1][1][1]]                                          
  O          -11.295517           -3.753772             0.500126            1            -0.597823    [8[6[1][1][1]][1]]                                          
  H          -11.227967           -3.909861             1.425621            1             0.402573    [1[8[6]]]                                                   
  H          -9.228378            -3.566037             0.185476            1             0.031932    [1[6[8][1][1]]]                                             
  H          -10.289831           -2.384274            -0.661147            1             0.031932    [1[6[8][1][1]]]                                             
  H          -9.949857            -2.171870             0.997315            1             0.031932    [1[6[8][1][1]]]                                             
