12

  C          -1.179622            -0.680025             6.462159            0             0.099454    [6[8[1]][1][1][1]]                                          
  O          -1.994517             0.038928             7.405688            0            -0.597823    [8[6[1][1][1]][1]]                                          
  H          -2.109912             0.907878             7.079844            0             0.402573    [1[8[6]]]                                                   
  H          -0.109920            -0.503745             6.727623            0             0.031932    [1[6[8][1][1]]]                                             
  H          -1.354234            -1.756892             6.522703            0             0.031932    [1[6[8][1][1]]]                                             
  H          -1.366128            -0.313220             5.402350            0             0.031932    [1[6[8][1][1]]]                                             
  C          -5.205219            -0.324728             10.663976           1             0.099454    [6[8[1]][1][1][1]]                                          
  O          -4.260699            -1.112100             11.339290           1            -0.597823    [8[6[1][1][1]][1]]                                          
  H          -4.538888            -2.023173             11.193134           1             0.402573    [1[8[6]]]                                                   
  H          -6.193105            -0.518040             11.173628           1             0.031932    [1[6[8][1][1]]]                                             
  H          -4.992310             0.793116             10.816407           1             0.031932    [1[6[8][1][1]]]                                             
  H          -5.336198            -0.628556             9.649572            1             0.031932    [1[6[8][1][1]]]                                             
