12

  C           10.270753            3.406764             8.909736            0             0.099454    [6[8[1]][1][1][1]]                                          
  O           9.444543             4.395521             9.484661            0            -0.597823    [8[6[1][1][1]][1]]                                          
  H           8.965214             3.925905             10.182131           0             0.402573    [1[8[6]]]                                                   
  H           10.040445            3.340167             7.897935            0             0.031932    [1[6[8][1][1]]]                                             
  H           11.322750            3.584785             9.119544            0             0.031932    [1[6[8][1][1]]]                                             
  H           10.101605            2.462617             9.374635            0             0.031932    [1[6[8][1][1]]]                                             
  C           6.999901             5.861613             7.645949            1             0.099454    [6[8[1]][1][1][1]]                                          
  O           7.965901             6.568074             8.477822            1            -0.597823    [8[6[1][1][1]][1]]                                          
  H           8.482590             5.768734             8.894697            1             0.402573    [1[8[6]]]                                                   
  H           7.159892             4.785389             7.721795            1             0.031932    [1[6[8][1][1]]]                                             
  H           5.910100             6.019634             7.758942            1             0.031932    [1[6[8][1][1]]]                                             
  H           7.232210             6.064417             6.560629            1             0.031932    [1[6[8][1][1]]]                                             
