12

  C          -8.550756             3.122368             3.230009            0             0.099454    [6[8[1]][1][1][1]]                                          
  O          -8.562572             2.964860             1.793958            0            -0.597823    [8[6[1][1][1]][1]]                                          
  H          -8.190921             3.761981             1.375839            0             0.402573    [1[8[6]]]                                                   
  H          -9.274297             2.452273             3.762807            0             0.031932    [1[6[8][1][1]]]                                             
  H          -7.574168             2.767367             3.602449            0             0.031932    [1[6[8][1][1]]]                                             
  H          -8.847867             4.108928             3.617314            0             0.031932    [1[6[8][1][1]]]                                             
  C          -10.795326            6.445610             1.553650            1             0.099454    [6[8[1]][1][1][1]]                                          
  O          -9.482808             6.092981             1.229966            1            -0.597823    [8[6[1][1][1]][1]]                                          
  H          -9.572663             5.395897             0.582545            1             0.402573    [1[8[6]]]                                                   
  H          -11.209848            5.887383             2.361897            1             0.031932    [1[6[8][1][1]]]                                             
  H          -10.904608            7.502518             1.866225            1             0.031932    [1[6[8][1][1]]]                                             
  H          -11.443020            6.359200             0.689975            1             0.031932    [1[6[8][1][1]]]                                             
