12

  C           7.632217             9.699304            -7.585289            0             0.099454    [6[8[1]][1][1][1]]                                          
  O           8.220885             8.717487            -8.487322            0            -0.597823    [8[6[1][1][1]][1]]                                          
  H           8.292732             7.918457            -7.923862            0             0.402573    [1[8[6]]]                                                   
  H           7.388094             10.683171           -8.048767            0             0.031932    [1[6[8][1][1]]]                                             
  H           6.886025             9.245156            -6.974468            0             0.031932    [1[6[8][1][1]]]                                             
  H           8.453979             9.988415            -6.909452            0             0.031932    [1[6[8][1][1]]]                                             
  C           3.870062             9.588237            -6.431992            1             0.099454    [6[8[1]][1][1][1]]                                          
  O           4.333502             8.226179            -6.452210            1            -0.597823    [8[6[1][1][1]][1]]                                          
  H           4.139159             7.860522            -7.309450            1             0.402573    [1[8[6]]]                                                   
  H           4.710507             10.342658           -6.567665            1             0.031932    [1[6[8][1][1]]]                                             
  H           3.127605             9.907514            -7.176449            1             0.031932    [1[6[8][1][1]]]                                             
  H           3.433877             9.691790            -5.417177            1             0.031932    [1[6[8][1][1]]]                                             
