12

  C          -7.942409            -2.379003            -9.459658            0             0.099454    [6[8[1]][1][1][1]]                                          
  O          -7.867683            -3.795945            -9.391160            0            -0.597823    [8[6[1][1][1]][1]]                                          
  H          -8.719740            -4.186714            -9.465420            0             0.402573    [1[8[6]]]                                                   
  H          -7.748901            -1.924920            -8.467208            0             0.031932    [1[6[8][1][1]]]                                             
  H          -7.233413            -1.909138            -10.170256           0             0.031932    [1[6[8][1][1]]]                                             
  H          -8.967834            -2.145940            -9.738359            0             0.031932    [1[6[8][1][1]]]                                             
  C          -3.888145             1.871441            -9.901667            1             0.099454    [6[8[1]][1][1][1]]                                          
  O          -2.887328             1.541876            -10.844331           1            -0.597823    [8[6[1][1][1]][1]]                                          
  H          -2.057649             1.745419            -10.528720           1             0.402573    [1[8[6]]]                                                   
  H          -4.007914             2.958215            -9.898934            1             0.031932    [1[6[8][1][1]]]                                             
  H          -4.899281             1.516543            -10.079027           1             0.031932    [1[6[8][1][1]]]                                             
  H          -3.612215             1.511664            -8.924497            1             0.031932    [1[6[8][1][1]]]                                             
