12

  C          -10.699421           -9.454129             0.693487            0             0.099454    [6[8[1]][1][1][1]]                                          
  O          -9.719492            -10.177955           -0.115839            0            -0.597823    [8[6[1][1][1]][1]]                                          
  H          -8.820935            -10.003981            0.121232            0             0.402573    [1[8[6]]]                                                   
  H          -11.625706           -10.048634            0.665409            0             0.031932    [1[6[8][1][1]]]                                             
  H          -10.303192           -9.351032             1.709668            0             0.031932    [1[6[8][1][1]]]                                             
  H          -10.915611           -8.543939             0.197331            0             0.031932    [1[6[8][1][1]]]                                             
  C          -6.562551            -9.594440            -0.983579            1             0.099454    [6[8[1]][1][1][1]]                                          
  O          -7.015849            -9.670442             0.292974            1            -0.597823    [8[6[1][1][1]][1]]                                          
  H          -6.502563            -9.019146             0.782750            1             0.402573    [1[8[6]]]                                                   
  H          -5.468592            -9.857157            -1.010024            1             0.031932    [1[6[8][1][1]]]                                             
  H          -7.115819            -10.191508           -1.692347            1             0.031932    [1[6[8][1][1]]]                                             
  H          -6.727303            -8.508277            -1.277775            1             0.031932    [1[6[8][1][1]]]                                             
