12

  C           5.434958             2.875792            -9.733265            0             0.099454    [6[8[1]][1][1][1]]                                          
  O           6.885886             2.877586            -9.509406            0            -0.597823    [8[6[1][1][1]][1]]                                          
  H           7.289825             2.013666            -9.590393            0             0.402573    [1[8[6]]]                                                   
  H           5.137906             3.799958            -10.234967           0             0.031932    [1[6[8][1][1]]]                                             
  H           5.202899             1.890700            -10.161595           0             0.031932    [1[6[8][1][1]]]                                             
  H           4.848795             2.960356            -8.769228            0             0.031932    [1[6[8][1][1]]]                                             
  C           1.742059             5.679924            -8.971994            1             0.099454    [6[8[1]][1][1][1]]                                          
  O           3.127111             5.813905            -9.286515            1            -0.597823    [8[6[1][1][1]][1]]                                          
  H           3.180131             5.773078            -10.237820           1             0.402573    [1[8[6]]]                                                   
  H           1.430800             4.618980            -8.738060            1             0.031932    [1[6[8][1][1]]]                                             
  H           1.491968             6.374196            -8.186645            1             0.031932    [1[6[8][1][1]]]                                             
  H           1.099198             6.029533            -9.862843            1             0.031932    [1[6[8][1][1]]]                                             
