12

  C           1.922953            -3.077625             2.484926            0             0.099454    [6[8[1]][1][1][1]]                                          
  O           1.345528            -3.086113             1.131528            0            -0.597823    [8[6[1][1][1]][1]]                                          
  H           1.970459            -2.601192             0.562478            0             0.402573    [1[8[6]]]                                                   
  H           2.975251            -2.827903             2.476688            0             0.031932    [1[6[8][1][1]]]                                             
  H           1.326520            -2.461149             3.132407            0             0.031932    [1[6[8][1][1]]]                                             
  H           1.791371            -4.136435             2.840835            0             0.031932    [1[6[8][1][1]]]                                             
  C           0.036738            -2.975285            -1.879113            1             0.099454    [6[8[1]][1][1][1]]                                          
  O          -0.289875            -3.769806            -0.803203            1            -0.597823    [8[6[1][1][1]][1]]                                          
  H          -0.111579            -3.333165             0.069700            1             0.402573    [1[8[6]]]                                                   
  H          -0.020576            -3.523164            -2.818727            1             0.031932    [1[6[8][1][1]]]                                             
  H          -0.692018            -2.146091            -1.976053            1             0.031932    [1[6[8][1][1]]]                                             
  H           1.025757            -2.531572            -1.896348            1             0.031932    [1[6[8][1][1]]]                                             
