12

  C           5.509219            -5.286384            -2.629828            0             0.099454    [6[8[1]][1][1][1]]                                          
  O           6.356411            -4.322206            -3.312786            0            -0.597823    [8[6[1][1][1]][1]]                                          
  H           5.806492            -3.659072            -3.753185            0             0.402573    [1[8[6]]]                                                   
  H           4.710320            -5.785805            -3.279945            0             0.031932    [1[6[8][1][1]]]                                             
  H           6.199272            -6.152955            -2.356879            0             0.031932    [1[6[8][1][1]]]                                             
  H           4.910016            -4.863904            -1.771712            0             0.031932    [1[6[8][1][1]]]                                             
  C           9.218978            -7.987972            -5.915427            1             0.099454    [6[8[1]][1][1][1]]                                          
  O           9.819521            -9.176341            -5.595037            1            -0.597823    [8[6[1][1][1]][1]]                                          
  H           10.185162           -9.170977            -4.710851            1             0.402573    [1[8[6]]]                                                   
  H           8.622314            -7.578588            -5.051792            1             0.031932    [1[6[8][1][1]]]                                             
  H           9.991690            -7.261423            -6.133714            1             0.031932    [1[6[8][1][1]]]                                             
  H           8.580099            -8.173163            -6.801020            1             0.031932    [1[6[8][1][1]]]                                             
