12

  C          -8.719428            -0.806688             2.256153            0             0.099454    [6[8[1]][1][1][1]]                                          
  O          -10.041191           -1.234781             2.494380            0            -0.597823    [8[6[1][1][1]][1]]                                          
  H          -10.144787           -1.521010             3.361301            0             0.402573    [1[8[6]]]                                                   
  H          -8.220031            -0.383521             3.209562            0             0.031932    [1[6[8][1][1]]]                                             
  H          -8.128405            -1.587988             1.732554            0             0.031932    [1[6[8][1][1]]]                                             
  H          -8.726105             0.059084             1.528395            0             0.031932    [1[6[8][1][1]]]                                             
  C          -7.895082            -0.450816            -3.438418            1             0.099454    [6[8[1]][1][1][1]]                                          
  O          -6.790914            -1.236352            -2.968042            1            -0.597823    [8[6[1][1][1]][1]]                                          
  H          -6.962837            -1.616194            -2.049960            1             0.402573    [1[8[6]]]                                                   
  H          -8.781143            -1.121909            -3.639668            1             0.031932    [1[6[8][1][1]]]                                             
  H          -8.113031             0.359831            -2.751344            1             0.031932    [1[6[8][1][1]]]                                             
  H          -7.681932            -0.008726            -4.411791            1             0.031932    [1[6[8][1][1]]]                                             
