12

  C           0.438339            -6.342064            -3.795153            0             0.099454    [6[8[1]][1][1][1]]                                          
  O           0.295904            -4.919318            -3.776308            0            -0.597823    [8[6[1][1][1]][1]]                                          
  H          -0.644205            -4.755559            -3.947735            0             0.402573    [1[8[6]]]                                                   
  H           0.092764            -6.864128            -2.859132            0             0.031932    [1[6[8][1][1]]]                                             
  H          -0.227476            -6.734490            -4.555237            0             0.031932    [1[6[8][1][1]]]                                             
  H           1.460221            -6.717462            -3.842822            0             0.031932    [1[6[8][1][1]]]                                             
  C          -3.412686            -4.523992            -2.785309            1             0.099454    [6[8[1]][1][1][1]]                                          
  O          -2.477537            -4.119576            -3.778693            1            -0.597823    [8[6[1][1][1]][1]]                                          
  H          -2.608273            -3.215468            -4.123627            1             0.402573    [1[8[6]]]                                                   
  H          -3.306883            -5.572252            -2.486987            1             0.031932    [1[6[8][1][1]]]                                             
  H          -3.452466            -3.824920            -1.917810            1             0.031932    [1[6[8][1][1]]]                                             
  H          -4.370876            -4.457348            -3.269788            1             0.031932    [1[6[8][1][1]]]                                             
