12

  C          -8.943252            -7.348248             2.064146            0             0.099454    [6[8[1]][1][1][1]]                                          
  O          -8.854877            -8.616783             1.511822            0            -0.597823    [8[6[1][1][1]][1]]                                          
  H          -9.785357            -8.938947             1.557192            0             0.402573    [1[8[6]]]                                                   
  H          -7.983475            -6.876313             1.956709            0             0.031932    [1[6[8][1][1]]]                                             
  H          -9.635888            -6.670991             1.500144            0             0.031932    [1[6[8][1][1]]]                                             
  H          -9.236388            -7.364689             3.074729            0             0.031932    [1[6[8][1][1]]]                                             
  C          -10.609718           -6.506409             5.896428            1             0.099454    [6[8[1]][1][1][1]]                                          
  O          -11.093761           -5.800162             4.800761            1            -0.597823    [8[6[1][1][1]][1]]                                          
  H          -11.835064           -5.252951             5.266487            1             0.402573    [1[8[6]]]                                                   
  H          -10.686594           -7.567486             5.695055            1             0.031932    [1[6[8][1][1]]]                                             
  H          -9.632253            -6.324988             6.243751            1             0.031932    [1[6[8][1][1]]]                                             
  H          -11.223079           -6.309885             6.777493            1             0.031932    [1[6[8][1][1]]]                                             
