12

  C          -4.577794            -8.204555             0.758113            0             0.099454    [6[8[1]][1][1][1]]                                          
  O          -3.963812            -6.878370             0.949898            0            -0.597823    [8[6[1][1][1]][1]]                                          
  H          -4.601478            -6.202893             0.636504            0             0.402573    [1[8[6]]]                                                   
  H          -4.823748            -8.459030            -0.313163            0             0.031932    [1[6[8][1][1]]]                                             
  H          -3.861738            -8.947558             1.107325            0             0.031932    [1[6[8][1][1]]]                                             
  H          -5.539757            -8.212242             1.264604            0             0.031932    [1[6[8][1][1]]]                                             
  C          -1.246376            -6.785112             3.235569            1             0.099454    [6[8[1]][1][1][1]]                                          
  O          -1.731775            -5.723574             2.361640            1            -0.597823    [8[6[1][1][1]][1]]                                          
  H          -2.029969            -6.162378             1.487465            1             0.402573    [1[8[6]]]                                                   
  H          -1.333332            -7.757998             2.824304            1             0.031932    [1[6[8][1][1]]]                                             
  H          -0.201581            -6.541920             3.488338            1             0.031932    [1[6[8][1][1]]]                                             
  H          -1.815348            -6.841643             4.134731            1             0.031932    [1[6[8][1][1]]]                                             
