12

  C          -9.226378             6.819918             10.298666           0             0.099454    [6[8[1]][1][1][1]]                                          
  O          -9.148091             8.189575             10.728169           0            -0.597823    [8[6[1][1][1]][1]]                                          
  H          -8.323087             8.375170             11.172389           0             0.402573    [1[8[6]]]                                                   
  H          -9.134527             6.692401             9.233474            0             0.031932    [1[6[8][1][1]]]                                             
  H          -8.394565             6.254475             10.685698           0             0.031932    [1[6[8][1][1]]]                                             
  H          -10.206823            6.394376             10.486377           0             0.031932    [1[6[8][1][1]]]                                             
  C          -8.419995             4.983387             7.231056            1             0.099454    [6[8[1]][1][1][1]]                                          
  O          -8.925307             4.145394             8.291104            1            -0.597823    [8[6[1][1][1]][1]]                                          
  H          -9.807980             4.169145             8.024877            1             0.402573    [1[8[6]]]                                                   
  H          -8.118618             5.961842             7.656485            1             0.031932    [1[6[8][1][1]]]                                             
  H          -7.403915             4.578973             6.863070            1             0.031932    [1[6[8][1][1]]]                                             
  H          -8.992139             5.220278             6.336531            1             0.031932    [1[6[8][1][1]]]                                             
