12

  C          -3.613576             2.949622             3.934506            0             0.099454    [6[8[1]][1][1][1]]                                          
  O          -3.601508             3.698823             5.159507            0            -0.597823    [8[6[1][1][1]][1]]                                          
  H          -2.638820             3.713132             5.390762            0             0.402573    [1[8[6]]]                                                   
  H          -2.909974             3.467466             3.239017            0             0.031932    [1[6[8][1][1]]]                                             
  H          -3.265800             1.935287             3.994618            0             0.031932    [1[6[8][1][1]]]                                             
  H          -4.596142             2.930245             3.440482            0             0.031932    [1[6[8][1][1]]]                                             
  C          -6.453457            -0.292748             3.025583            1             0.099454    [6[8[1]][1][1][1]]                                          
  O          -7.118976             0.113840             4.133951            1            -0.597823    [8[6[1][1][1]][1]]                                          
  H          -6.482829             0.713591             4.577241            1             0.402573    [1[8[6]]]                                                   
  H          -7.026724            -1.111261             2.492437            1             0.031932    [1[6[8][1][1]]]                                             
  H          -6.333896             0.490249             2.235554            1             0.031932    [1[6[8][1][1]]]                                             
  H          -5.489757            -0.618275             3.381762            1             0.031932    [1[6[8][1][1]]]                                             
