12

  C           5.369477            -6.342536            -0.441178            0             0.099454    [6[8[1]][1][1][1]]                                          
  O           5.334754            -5.019816             0.209316            0            -0.597823    [8[6[1][1][1]][1]]                                          
  H           4.689948            -4.385982            -0.258636            0             0.402573    [1[8[6]]]                                                   
  H           5.435570            -7.157379             0.285672            0             0.031932    [1[6[8][1][1]]]                                             
  H           4.490291            -6.557346            -0.960870            0             0.031932    [1[6[8][1][1]]]                                             
  H           6.075459            -6.414477            -1.304671            0             0.031932    [1[6[8][1][1]]]                                             
  C           7.749190            -8.148182            -2.780559            1             0.099454    [6[8[1]][1][1][1]]                                          
  O           8.393425            -8.818882            -1.696221            1            -0.597823    [8[6[1][1][1]][1]]                                          
  H           8.348351            -9.776244            -1.949852            1             0.402573    [1[8[6]]]                                                   
  H           8.096929            -8.590309            -3.747867            1             0.031932    [1[6[8][1][1]]]                                             
  H           6.636254            -8.120923            -2.809350            1             0.031932    [1[6[8][1][1]]]                                             
  H           8.009079            -7.099678            -2.855379            1             0.031932    [1[6[8][1][1]]]                                             
