12

  C          -1.143472             3.251015            -8.383428            0             0.099454    [6[8[1]][1][1][1]]                                          
  O          -1.942154             2.903486            -9.464382            0            -0.597823    [8[6[1][1][1]][1]]                                          
  H          -1.698939             3.509440            -10.183064           0             0.402573    [1[8[6]]]                                                   
  H          -1.426148             2.504044            -7.571571            0             0.031932    [1[6[8][1][1]]]                                             
  H          -0.084644             3.152513            -8.594473            0             0.031932    [1[6[8][1][1]]]                                             
  H          -1.392792             4.268874            -8.070492            0             0.031932    [1[6[8][1][1]]]                                             
  C           2.691571             0.366371            -10.424290           1             0.099454    [6[8[1]][1][1][1]]                                          
  O           4.008650            -0.066053            -10.578584           1            -0.597823    [8[6[1][1][1]][1]]                                          
  H           4.418914            -0.313077            -9.738664            1             0.402573    [1[8[6]]]                                                   
  H           2.458512             1.242766            -11.098825           1             0.031932    [1[6[8][1][1]]]                                             
  H           2.004740            -0.422140            -10.644969           1             0.031932    [1[6[8][1][1]]]                                             
  H           2.538412             0.814848            -9.449670            1             0.031932    [1[6[8][1][1]]]                                             
