12

  C           9.360468            -4.523656             4.335038            0             0.099454    [6[8[1]][1][1][1]]                                          
  O           8.326896            -5.370352             3.903964            0            -0.597823    [8[6[1][1][1]][1]]                                          
  H           7.725141            -5.409423             4.658001            0             0.402573    [1[8[6]]]                                                   
  H           8.951792            -3.626088             4.768817            0             0.031932    [1[6[8][1][1]]]                                             
  H           9.861924            -4.986321             5.201307            0             0.031932    [1[6[8][1][1]]]                                             
  H           10.075039           -4.268118             3.603111            0             0.031932    [1[6[8][1][1]]]                                             
  C           6.259848            -7.037846             6.112969            1             0.099454    [6[8[1]][1][1][1]]                                          
  O           7.006124            -5.919135             6.482023            1            -0.597823    [8[6[1][1][1]][1]]                                          
  H           7.929749            -6.229473             6.582186            1             0.402573    [1[8[6]]]                                                   
  H           6.674014            -7.345797             5.130091            1             0.031932    [1[6[8][1][1]]]                                             
  H           6.195808            -7.890174             6.877800            1             0.031932    [1[6[8][1][1]]]                                             
  H           5.252018            -6.719712             5.820286            1             0.031932    [1[6[8][1][1]]]                                             
