12

  C          -7.284692             9.448034             8.888117            0             0.099454    [6[8[1]][1][1][1]]                                          
  O          -8.112072             10.027242            9.933787            0            -0.597823    [8[6[1][1][1]][1]]                                          
  H          -7.642018             10.829037            10.204778           0             0.402573    [1[8[6]]]                                                   
  H          -6.230103             9.391925             9.178771            0             0.031932    [1[6[8][1][1]]]                                             
  H          -7.543175             8.418381             8.673947            0             0.031932    [1[6[8][1][1]]]                                             
  H          -7.374277             10.050018            7.969878            0             0.031932    [1[6[8][1][1]]]                                             
  C          -3.541295             10.521136            9.568644            1             0.099454    [6[8[1]][1][1][1]]                                          
  O          -3.399435             10.060279            8.250291            1            -0.597823    [8[6[1][1][1]][1]]                                          
  H          -3.946769             10.629168            7.612722            1             0.402573    [1[8[6]]]                                                   
  H          -3.593873             11.622701            9.462151            1             0.031932    [1[6[8][1][1]]]                                             
  H          -4.505612             10.219647            10.041513           1             0.031932    [1[6[8][1][1]]]                                             
  H          -2.746563             10.239366            10.237962           1             0.031932    [1[6[8][1][1]]]                                             
