12

  C           1.492842            -1.616717             9.316744            0             0.099454    [6[8[1]][1][1][1]]                                          
  O           2.565205            -0.805141             9.549904            0            -0.597823    [8[6[1][1][1]][1]]                                          
  H           3.306572            -1.395744             9.479133            0             0.402573    [1[8[6]]]                                                   
  H           0.628720            -1.037586             9.032830            0             0.031932    [1[6[8][1][1]]]                                             
  H           1.697302            -2.385881             8.503197            0             0.031932    [1[6[8][1][1]]]                                             
  H           1.251846            -2.163119             10.244654           0             0.031932    [1[6[8][1][1]]]                                             
  C           3.882099             2.184451             9.631789            1             0.099454    [6[8[1]][1][1][1]]                                          
  O           3.000402             1.722886             10.616465           1            -0.597823    [8[6[1][1][1]][1]]                                          
  H           2.309864             1.192647             10.191350           1             0.402573    [1[8[6]]]                                                   
  H           3.353727             2.811146             8.937022            1             0.031932    [1[6[8][1][1]]]                                             
  H           4.641639             2.952712             9.894458            1             0.031932    [1[6[8][1][1]]]                                             
  H           4.327532             1.397473             9.044047            1             0.031932    [1[6[8][1][1]]]                                             
