12

  C           9.461003            -2.053133            -8.480720            0             0.099454    [6[8[1]][1][1][1]]                                          
  O           10.602396           -2.423743            -9.216608            0            -0.597823    [8[6[1][1][1]][1]]                                          
  H           10.359281           -2.569251            -10.118640           0             0.402573    [1[8[6]]]                                                   
  H           8.540388            -2.501587            -8.746617            0             0.031932    [1[6[8][1][1]]]                                             
  H           9.715682            -2.249565            -7.412942            0             0.031932    [1[6[8][1][1]]]                                             
  H           9.241016            -0.944311            -8.524325            0             0.031932    [1[6[8][1][1]]]                                             
  C           8.757536            -7.790057            -11.466378           1             0.099454    [6[8[1]][1][1][1]]                                          
  O           9.680474            -6.948176            -12.123370           1            -0.597823    [8[6[1][1][1]][1]]                                          
  H           9.590229            -6.080873            -11.813076           1             0.402573    [1[8[6]]]                                                   
  H           7.812078            -7.348347            -11.129758           1             0.031932    [1[6[8][1][1]]]                                             
  H           8.470347            -8.622161            -12.028004           1             0.031932    [1[6[8][1][1]]]                                             
  H           9.173714            -8.433329            -10.648285           1             0.031932    [1[6[8][1][1]]]                                             
