12

  C          -1.657348            -2.605589             3.107495            0             0.099454    [6[8[1]][1][1][1]]                                          
  O          -1.433084            -3.963794             3.336402            0            -0.597823    [8[6[1][1][1]][1]]                                          
  H          -1.822367            -4.471035             2.634541            0             0.402573    [1[8[6]]]                                                   
  H          -1.025186            -1.978984             3.793105            0             0.031932    [1[6[8][1][1]]]                                             
  H          -1.370348            -2.277809             2.137469            0             0.031932    [1[6[8][1][1]]]                                             
  H          -2.655147            -2.318401             3.325334            0             0.031932    [1[6[8][1][1]]]                                             
  C           1.449226            -6.434020             0.696478            1             0.099454    [6[8[1]][1][1][1]]                                          
  O           0.412153            -6.402556            -0.248079            1            -0.597823    [8[6[1][1][1]][1]]                                          
  H           0.008647            -5.535589            -0.295432            1             0.402573    [1[8[6]]]                                                   
  H           1.145095            -6.094302             1.594286            1             0.031932    [1[6[8][1][1]]]                                             
  H           1.867593            -7.459770             0.886498            1             0.031932    [1[6[8][1][1]]]                                             
  H           2.280055            -5.754609             0.386227            1             0.031932    [1[6[8][1][1]]]                                             
