12

  C          -9.580108             6.495878            -7.923586            0             0.099454    [6[8[1]][1][1][1]]                                          
  O          -9.042154             7.127626            -6.797535            0            -0.597823    [8[6[1][1][1]][1]]                                          
  H          -9.552280             6.797251            -6.024686            0             0.402573    [1[8[6]]]                                                   
  H          -8.951582             5.597189            -8.199487            0             0.031932    [1[6[8][1][1]]]                                             
  H          -10.588789            6.138774            -7.701321            0             0.031932    [1[6[8][1][1]]]                                             
  H          -9.605655             7.210337            -8.752568            0             0.031932    [1[6[8][1][1]]]                                             
  C          -5.692701             7.109104            -7.079133            1             0.099454    [6[8[1]][1][1][1]]                                          
  O          -4.677477             6.746967            -7.953440            1            -0.597823    [8[6[1][1][1]][1]]                                          
  H          -4.948791             6.019831            -8.515254            1             0.402573    [1[8[6]]]                                                   
  H          -6.219800             6.275228            -6.545849            1             0.031932    [1[6[8][1][1]]]                                             
  H          -5.362846             7.747880            -6.377877            1             0.031932    [1[6[8][1][1]]]                                             
  H          -6.427668             7.635643            -7.700466            1             0.031932    [1[6[8][1][1]]]                                             
