6
Indices: 0 1 2 3 4 5
C             3.01121149501706    -1.18073357678686     0.59855515303443    [6[8[1]][1][1][1]]
O             4.39457680935848    -1.12788644442128     0.87437085647032    [8[6[1][1][1]][1]]
H             4.77209992042267    -0.37885830564262     0.41255645409132    [1[8[6]]]
H             2.80633819696697    -1.31880130299585    -0.46928631873563    [1[6[8][1][1]]]
H             2.61153597549208    -2.04010140454174     1.13596171539349    [1[6[8][1][1]]]
H             2.48485327668539    -0.28465468406742     0.94559553497594    [1[6[8][1][1]]]
