12

  C           7.257563             6.735818             4.442851            0             0.099454    [6[8[1]][1][1][1]]                                          
  O           8.386543             7.556154             4.548185            0            -0.597823    [8[6[1][1][1]][1]]                                          
  H           9.044606             7.039462             5.018656            0             0.402573    [1[8[6]]]                                                   
  H           7.278685             6.428361             3.430371            0             0.031932    [1[6[8][1][1]]]                                             
  H           7.463774             5.931356             5.183014            0             0.031932    [1[6[8][1][1]]]                                             
  H           6.305239             7.244127             4.579032            0             0.031932    [1[6[8][1][1]]]                                             
  C           10.973674            7.502997             8.169250            1             0.099454    [6[8[1]][1][1][1]]                                          
  O           9.737500             7.254733             7.518770            1            -0.597823    [8[6[1][1][1]][1]]                                          
  H           9.252444             8.001876             7.876629            1             0.402573    [1[8[6]]]                                                   
  H           11.275367            6.524011             8.602906            1             0.031932    [1[6[8][1][1]]]                                             
  H           11.693514            7.941693             7.489010            1             0.031932    [1[6[8][1][1]]]                                             
  H           10.940348            8.147701             9.068041            1             0.031932    [1[6[8][1][1]]]                                             
