6

  C           7.724144            -6.032143            -3.309285            0             0.089063    [6[8[1]][1][1][1]]                                          
  O           7.841854            -6.128180            -4.721289            0            -0.604789    [8[6[1][1][1]][1]]                                          
  H           6.889611            -6.159205            -4.885336            0             0.406250    [1[8[6]]]                                                   
  H           6.863186            -6.620997            -2.928870            0             0.036492    [1[6[8][1][1]]]                                             
  H           8.575960            -6.429634            -2.794604            0             0.036492    [1[6[8][1][1]]]                                             
  H           7.598050            -4.964165            -3.096054            0             0.036492    [1[6[8][1][1]]]                                             
