12

  C          -2.313152             2.209491             1.472491            0             0.099454    [6[8[1]][1][1][1]]                                          
  O          -3.409687             1.365567             1.882178            0            -0.597823    [8[6[1][1][1]][1]]                                          
  H          -3.929460             1.988193             2.385590            0             0.402573    [1[8[6]]]                                                   
  H          -1.861746             1.840108             0.494320            0             0.031932    [1[6[8][1][1]]]                                             
  H          -2.520141             3.299756             1.321185            0             0.031932    [1[6[8][1][1]]]                                             
  H          -1.539403             2.151524             2.219451            0             0.031932    [1[6[8][1][1]]]                                             
  C          -6.765205             1.697143             0.374729            1             0.099454    [6[8[1]][1][1][1]]                                          
  O          -5.553797             1.993042            -0.275726            1            -0.597823    [8[6[1][1][1]][1]]                                          
  H          -4.852191             1.883917             0.424422            1             0.402573    [1[8[6]]]                                                   
  H          -7.021550             2.335747             1.241367            1             0.031932    [1[6[8][1][1]]]                                             
  H          -7.545263             1.932627            -0.311194            1             0.031932    [1[6[8][1][1]]]                                             
  H          -6.856817             0.635440             0.722618            1             0.031932    [1[6[8][1][1]]]                                             
