12

  C          -5.760055            -8.513829            -0.368279            0             0.099454    [6[8[1]][1][1][1]]                                          
  O          -4.328419            -8.570165            -0.232964            0            -0.597823    [8[6[1][1][1]][1]]                                          
  H          -3.882338            -8.895393            -1.060434            0             0.402573    [1[8[6]]]                                                   
  H          -6.142381            -9.490656            -0.599843            0             0.031932    [1[6[8][1][1]]]                                             
  H          -6.286830            -8.176719             0.543374            0             0.031932    [1[6[8][1][1]]]                                             
  H          -6.157992            -7.898399            -1.183509            0             0.031932    [1[6[8][1][1]]]                                             
  C          -2.958133            -5.910956             1.866469            1             0.099454    [6[8[1]][1][1][1]]                                          
  O          -2.832775            -7.293299             1.854868            1            -0.597823    [8[6[1][1][1]][1]]                                          
  H          -3.467590            -7.636709             1.262656            1             0.402573    [1[8[6]]]                                                   
  H          -2.945001            -5.442606             0.902511            1             0.031932    [1[6[8][1][1]]]                                             
  H          -3.971730            -5.552848             2.280433            1             0.031932    [1[6[8][1][1]]]                                             
  H          -2.192545            -5.548036             2.414765            1             0.031932    [1[6[8][1][1]]]                                             
