12

  C          -2.839955            -3.953407            -0.078150            0             0.099454    [6[8[1]][1][1][1]]                                          
  O          -2.008247            -2.946951             0.371114            0            -0.597823    [8[6[1][1][1]][1]]                                          
  H          -2.187683            -2.219467            -0.178250            0             0.402573    [1[8[6]]]                                                   
  H          -3.058394            -3.772306            -1.120352            0             0.031932    [1[6[8][1][1]]]                                             
  H          -2.431864            -4.948480             0.016022            0             0.031932    [1[6[8][1][1]]]                                             
  H          -3.792097            -3.920621             0.402216            0             0.031932    [1[6[8][1][1]]]                                             
  C          -5.187840            -5.626479             3.601586            1             0.099454    [6[8[1]][1][1][1]]                                          
  O          -4.440785            -4.681219             2.812045            1            -0.597823    [8[6[1][1][1]][1]]                                          
  H          -3.502146            -4.902189             2.922035            1             0.402573    [1[8[6]]]                                                   
  H          -4.747590            -5.765776             4.629819            1             0.031932    [1[6[8][1][1]]]                                             
  H          -6.267407            -5.338771             3.654883            1             0.031932    [1[6[8][1][1]]]                                             
  H          -5.067076            -6.568381             3.197691            1             0.031932    [1[6[8][1][1]]]                                             
