12

  C          -10.389428           -5.668474             0.886552            0             0.099454    [6[8[1]][1][1][1]]                                          
  O          -9.427594            -5.129751            -0.008684            0            -0.597823    [8[6[1][1][1]][1]]                                          
  H          -8.619964            -5.665520             0.023088            0             0.402573    [1[8[6]]]                                                   
  H          -11.126881           -4.947132             1.176537            0             0.031932    [1[6[8][1][1]]]                                             
  H          -10.780607           -6.594603             0.450729            0             0.031932    [1[6[8][1][1]]]                                             
  H          -9.779254            -5.947587             1.825181            0             0.031932    [1[6[8][1][1]]]                                             
  C          -5.806224            -7.343673            -0.405373            1             0.099454    [6[8[1]][1][1][1]]                                          
  O          -6.798770            -6.609270             0.234810            1            -0.597823    [8[6[1][1][1]][1]]                                          
  H          -7.044524            -7.136931             0.983341            1             0.402573    [1[8[6]]]                                                   
  H          -5.128321            -7.722086             0.349345            1             0.031932    [1[6[8][1][1]]]                                             
  H          -6.127042            -8.151048            -0.959240            1             0.031932    [1[6[8][1][1]]]                                             
  H          -5.253298            -6.661296            -0.932409            1             0.031932    [1[6[8][1][1]]]                                             
