12

  C           6.745725             9.675620             6.100346            0             0.099454    [6[8[1]][1][1][1]]                                          
  O           6.065059             8.799649             5.211877            0            -0.597823    [8[6[1][1][1]][1]]                                          
  H           5.292187             9.106264             4.782544            0             0.402573    [1[8[6]]]                                                   
  H           7.817412             9.817642             5.772021            0             0.031932    [1[6[8][1][1]]]                                             
  H           6.263485             10.669242            6.151953            0             0.031932    [1[6[8][1][1]]]                                             
  H           6.794358             9.337570             7.126804            0             0.031932    [1[6[8][1][1]]]                                             
  C           5.047431             11.493174            9.649811            1             0.099454    [6[8[1]][1][1][1]]                                          
  O           4.819667             10.563582            8.597940            1            -0.597823    [8[6[1][1][1]][1]]                                          
  H           3.923183             10.205155            8.649925            1             0.402573    [1[8[6]]]                                                   
  H           5.873638             12.126344            9.378140            1             0.031932    [1[6[8][1][1]]]                                             
  H           4.129296             12.240879            9.732500            1             0.031932    [1[6[8][1][1]]]                                             
  H           5.280151             11.083046            10.628110           1             0.031932    [1[6[8][1][1]]]                                             
