12

  C          -6.546840             0.074704             9.038280            0             0.099454    [6[8[1]][1][1][1]]                                          
  O          -6.336000             1.429750             8.808845            0            -0.597823    [8[6[1][1][1]][1]]                                          
  H          -5.428613             1.515341             8.559811            0             0.402573    [1[8[6]]]                                                   
  H          -7.109638            -0.391232             8.240486            0             0.031932    [1[6[8][1][1]]]                                             
  H          -5.589320            -0.496312             9.039589            0             0.031932    [1[6[8][1][1]]]                                             
  H          -7.081118            -0.070553             9.995042            0             0.031932    [1[6[8][1][1]]]                                             
  C          -2.808617            -1.737059             8.696222            1             0.099454    [6[8[1]][1][1][1]]                                          
  O          -3.519960            -1.248605             9.838495            1            -0.597823    [8[6[1][1][1]][1]]                                          
  H          -3.025267            -1.574409             10.619669           1             0.402573    [1[8[6]]]                                                   
  H          -2.767888            -2.814282             8.543875            1             0.031932    [1[6[8][1][1]]]                                             
  H          -3.162831            -1.196957             7.815363            1             0.031932    [1[6[8][1][1]]]                                             
  H          -1.744119            -1.591351             8.727154            1             0.031932    [1[6[8][1][1]]]                                             
