12

  C          -0.107336            -6.761295            -6.715591            0             0.099454    [6[8[1]][1][1][1]]                                          
  O          -0.840736            -7.925506            -6.762882            0            -0.597823    [8[6[1][1][1]][1]]                                          
  H          -0.625648            -8.537022            -6.098598            0             0.402573    [1[8[6]]]                                                   
  H           0.918834            -6.900276            -6.443235            0             0.031932    [1[6[8][1][1]]]                                             
  H          -0.136207            -6.196261            -7.628469            0             0.031932    [1[6[8][1][1]]]                                             
  H          -0.460480            -6.062073            -5.931819            0             0.031932    [1[6[8][1][1]]]                                             
  C           1.367923            -6.330460            -10.176826           1             0.099454    [6[8[1]][1][1][1]]                                          
  O           0.599920            -7.321826            -10.790082           1            -0.597823    [8[6[1][1][1]][1]]                                          
  H          -0.023357            -7.777559            -10.239975           1             0.402573    [1[8[6]]]                                                   
  H           2.408693            -6.273177            -10.548830           1             0.031932    [1[6[8][1][1]]]                                             
  H           1.022412            -5.304323            -10.160422           1             0.031932    [1[6[8][1][1]]]                                             
  H           1.565223            -6.564865            -9.102206            1             0.031932    [1[6[8][1][1]]]                                             
