12

  C           2.739132            -3.942480            -1.008213            0             0.099454    [6[8[1]][1][1][1]]                                          
  O           1.753076            -3.898102            -0.067553            0            -0.597823    [8[6[1][1][1]][1]]                                          
  H           2.322324            -4.076974             0.640020            0             0.402573    [1[8[6]]]                                                   
  H           3.466281            -4.735064            -0.636827            0             0.031932    [1[6[8][1][1]]]                                             
  H           2.402265            -4.144417            -2.020121            0             0.031932    [1[6[8][1][1]]]                                             
  H           3.256188            -3.012980            -0.955926            0             0.031932    [1[6[8][1][1]]]                                             
  C           2.961884             0.407319            -2.412688            1             0.099454    [6[8[1]][1][1][1]]                                          
  O           2.456259             1.484305            -1.679243            1            -0.597823    [8[6[1][1][1]][1]]                                          
  H           2.553771             1.294301            -0.756044            1             0.402573    [1[8[6]]]                                                   
  H           3.996649             0.213085            -2.123589            1             0.031932    [1[6[8][1][1]]]                                             
  H           2.420544            -0.510132            -2.440008            1             0.031932    [1[6[8][1][1]]]                                             
  H           2.934534             0.770478            -3.468027            1             0.031932    [1[6[8][1][1]]]                                             
