12

  C          -8.806139            -3.804200            -0.537785            0             0.099454    [6[8[1]][1][1][1]]                                          
  O          -9.024071            -2.496550            -1.017201            0            -0.597823    [8[6[1][1][1]][1]]                                          
  H          -9.353899            -2.559543            -1.944128            0             0.402573    [1[8[6]]]                                                   
  H          -8.922862            -3.712289             0.568426            0             0.031932    [1[6[8][1][1]]]                                             
  H          -9.480058            -4.616308            -0.979368            0             0.031932    [1[6[8][1][1]]]                                             
  H          -7.833328            -4.174835            -0.732438            0             0.031932    [1[6[8][1][1]]]                                             
  C          -6.266477            -4.168455             2.455603            1             0.099454    [6[8[1]][1][1][1]]                                          
  O          -7.175860            -4.854637             3.321808            1            -0.597823    [8[6[1][1][1]][1]]                                          
  H          -7.764477            -4.120895             3.614753            1             0.402573    [1[8[6]]]                                                   
  H          -5.463502            -3.663733             3.000096            1             0.031932    [1[6[8][1][1]]]                                             
  H          -5.628157            -4.916968             1.894217            1             0.031932    [1[6[8][1][1]]]                                             
  H          -6.708523            -3.465401             1.673452            1             0.031932    [1[6[8][1][1]]]                                             
