12

  C          -8.163193            -6.905620            -4.301481            0             0.099454    [6[8[1]][1][1][1]]                                          
  O          -9.542434            -7.024346            -4.647095            0            -0.597823    [8[6[1][1][1]][1]]                                          
  H          -9.850097            -7.982121            -4.623315            0             0.402573    [1[8[6]]]                                                   
  H          -8.099621            -7.127255            -3.255238            0             0.031932    [1[6[8][1][1]]]                                             
  H          -7.429261            -7.558297            -4.754039            0             0.031932    [1[6[8][1][1]]]                                             
  H          -7.746847            -5.901509            -4.535243            0             0.031932    [1[6[8][1][1]]]                                             
  C          -9.704760            -10.112295           -5.598000            1             0.099454    [6[8[1]][1][1][1]]                                          
  O          -10.789277           -9.994479            -4.634057            1            -0.597823    [8[6[1][1][1]][1]]                                          
  H          -10.606623           -10.447593           -3.800841            1             0.402573    [1[8[6]]]                                                   
  H          -8.761518            -9.565117            -5.331938            1             0.031932    [1[6[8][1][1]]]                                             
  H          -9.506611            -11.203353           -5.924558            1             0.031932    [1[6[8][1][1]]]                                             
  H          -9.993329            -9.615964            -6.496882            1             0.031932    [1[6[8][1][1]]]                                             
