12

  C           7.087538             3.114760            -6.287559            0             0.099454    [6[8[1]][1][1][1]]                                          
  O           8.478925             2.966955            -6.142406            0            -0.597823    [8[6[1][1][1]][1]]                                          
  H           8.946655             3.760954            -6.069125            0             0.402573    [1[8[6]]]                                                   
  H           6.609672             3.351330            -5.335322            0             0.031932    [1[6[8][1][1]]]                                             
  H           6.831918             3.872074            -7.095502            0             0.031932    [1[6[8][1][1]]]                                             
  H           6.668333             2.144904            -6.663838            0             0.031932    [1[6[8][1][1]]]                                             
  C           8.821801            -0.660790            -7.400831            1             0.099454    [6[8[1]][1][1][1]]                                          
  O           9.594603             0.136001            -6.584878            1            -0.597823    [8[6[1][1][1]][1]]                                          
  H           9.397918             1.055526            -6.736110            1             0.402573    [1[8[6]]]                                                   
  H           7.764089            -0.389250            -7.476109            1             0.031932    [1[6[8][1][1]]]                                             
  H           9.242845            -0.657495            -8.405137            1             0.031932    [1[6[8][1][1]]]                                             
  H           9.036630            -1.697940            -6.976103            1             0.031932    [1[6[8][1][1]]]                                             
