12

  C           0.396485             1.545882            -10.724549           0             0.099454    [6[8[1]][1][1][1]]                                          
  O          -0.826474             2.070652            -10.288100           0            -0.597823    [8[6[1][1][1]][1]]                                          
  H          -0.568896             2.435322            -9.420965            0             0.402573    [1[8[6]]]                                                   
  H           0.355493             1.121078            -11.721559           0             0.031932    [1[6[8][1][1]]]                                             
  H           1.248323             2.261888            -10.577302           0             0.031932    [1[6[8][1][1]]]                                             
  H           0.667296             0.698376            -10.055047           0             0.031932    [1[6[8][1][1]]]                                             
  C          -1.453790             3.205992            -5.926784            1             0.099454    [6[8[1]][1][1][1]]                                          
  O          -1.457875             2.228123            -6.998101            1            -0.597823    [8[6[1][1][1]][1]]                                          
  H          -0.703341             1.666101            -6.898070            1             0.402573    [1[8[6]]]                                                   
  H          -1.332936             2.770356            -4.893537            1             0.031932    [1[6[8][1][1]]]                                             
  H          -0.664551             4.000581            -6.041633            1             0.031932    [1[6[8][1][1]]]                                             
  H          -2.377194             3.697130            -5.930275            1             0.031932    [1[6[8][1][1]]]                                             
