12

  C           0.950964             2.647921             8.080619            0             0.099454    [6[8[1]][1][1][1]]                                          
  O           1.658286             1.577271             8.664702            0            -0.597823    [8[6[1][1][1]][1]]                                          
  H           2.550322             1.498365             8.275117            0             0.402573    [1[8[6]]]                                                   
  H           1.205504             2.611569             7.018494            0             0.031932    [1[6[8][1][1]]]                                             
  H          -0.185575             2.570360             8.138774            0             0.031932    [1[6[8][1][1]]]                                             
  H           1.287986             3.598304             8.443395            0             0.031932    [1[6[8][1][1]]]                                             
  C           4.530417             2.251809             6.628512            1             0.099454    [6[8[1]][1][1][1]]                                          
  O           4.137787             1.012880             7.225468            1            -0.597823    [8[6[1][1][1]][1]]                                          
  H           4.455139             0.294657             6.696131            1             0.402573    [1[8[6]]]                                                   
  H           5.637235             2.348464             6.717939            1             0.031932    [1[6[8][1][1]]]                                             
  H           4.287020             2.341423             5.578256            1             0.031932    [1[6[8][1][1]]]                                             
  H           4.010123             3.065728             7.176024            1             0.031932    [1[6[8][1][1]]]                                             
