12

  C           7.497052             2.270548            -2.229564            0             0.099454    [6[8[1]][1][1][1]]                                          
  O           7.274644             2.219434            -0.824995            0            -0.597823    [8[6[1][1][1]][1]]                                          
  H           7.353373             3.087960            -0.498924            0             0.402573    [1[8[6]]]                                                   
  H           6.908298             1.511459            -2.771878            0             0.031932    [1[6[8][1][1]]]                                             
  H           7.202090             3.245681            -2.504666            0             0.031932    [1[6[8][1][1]]]                                             
  H           8.554469             2.117082            -2.447961            0             0.031932    [1[6[8][1][1]]]                                             
  C           9.804271             1.267072             1.363597            1             0.099454    [6[8[1]][1][1][1]]                                          
  O           10.138398            0.228172             0.457149            1            -0.597823    [8[6[1][1][1]][1]]                                          
  H           9.374575            -0.323396             0.348087            1             0.402573    [1[8[6]]]                                                   
  H           10.687809            1.548635             1.931044            1             0.031932    [1[6[8][1][1]]]                                             
  H           9.417866             2.141988             0.889620            1             0.031932    [1[6[8][1][1]]]                                             
  H           8.960742             1.047092             2.027602            1             0.031932    [1[6[8][1][1]]]                                             
