12

  C          -2.839955            -3.953407            -0.078150            0             0.099454    [6[8[1]][1][1][1]]                                          
  O          -2.008247            -2.946951             0.371114            0            -0.597823    [8[6[1][1][1]][1]]                                          
  H          -2.187683            -2.219467            -0.178250            0             0.402573    [1[8[6]]]                                                   
  H          -3.058394            -3.772306            -1.120352            0             0.031932    [1[6[8][1][1]]]                                             
  H          -2.431864            -4.948480             0.016022            0             0.031932    [1[6[8][1][1]]]                                             
  H          -3.792097            -3.920621             0.402216            0             0.031932    [1[6[8][1][1]]]                                             
  C          -3.331310            -6.055816            -3.086817            1             0.099454    [6[8[1]][1][1][1]]                                          
  O          -2.105490            -5.613339            -2.688533            1            -0.597823    [8[6[1][1][1]][1]]                                          
  H          -1.456967            -6.305582            -2.864196            1             0.402573    [1[8[6]]]                                                   
  H          -4.237121            -5.471085            -2.682077            1             0.031932    [1[6[8][1][1]]]                                             
  H          -3.476573            -6.009731            -4.181249            1             0.031932    [1[6[8][1][1]]]                                             
  H          -3.507395            -7.181582            -2.902595            1             0.031932    [1[6[8][1][1]]]                                             
