12

  C           10.289126           -2.634421            -1.941004            0             0.099454    [6[8[1]][1][1][1]]                                          
  O           9.433432            -3.716244            -2.341455            0            -0.597823    [8[6[1][1][1]][1]]                                          
  H           9.747974            -4.128017            -3.118309            0             0.402573    [1[8[6]]]                                                   
  H           10.432611           -1.866400            -2.787029            0             0.031932    [1[6[8][1][1]]]                                             
  H           9.803779            -2.111440            -1.050015            0             0.031932    [1[6[8][1][1]]]                                             
  H           11.290492           -3.035278            -1.606334            0             0.031932    [1[6[8][1][1]]]                                             
  C           7.172818            -0.603873            -0.970742            1             0.099454    [6[8[1]][1][1][1]]                                          
  O           8.116785            -0.080905            -1.887271            1            -0.597823    [8[6[1][1][1]][1]]                                          
  H           7.675799             0.293743            -2.663364            1             0.402573    [1[8[6]]]                                                   
  H           6.370550             0.113535            -0.950695            1             0.031932    [1[6[8][1][1]]]                                             
  H           6.835261            -1.662762            -1.272122            1             0.031932    [1[6[8][1][1]]]                                             
  H           7.668848            -0.633000             0.010413            1             0.031932    [1[6[8][1][1]]]                                             
