12

  C           0.395747             0.499302             3.166637            0             0.099454    [6[8[1]][1][1][1]]                                          
  O          -0.741435             1.109411             2.820772            0            -0.597823    [8[6[1][1][1]][1]]                                          
  H          -1.443136             0.800324             3.428644            0             0.402573    [1[8[6]]]                                                   
  H           0.572906             0.753819             4.234277            0             0.031932    [1[6[8][1][1]]]                                             
  H           0.320529            -0.597235             3.056164            0             0.031932    [1[6[8][1][1]]]                                             
  H           1.203881             0.845296             2.442496            0             0.031932    [1[6[8][1][1]]]                                             
  C          -1.713495             5.070337             3.795693            1             0.099454    [6[8[1]][1][1][1]]                                          
  O          -2.160120             3.684679             4.068545            1            -0.597823    [8[6[1][1][1]][1]]                                          
  H          -1.564629             3.057813             3.648862            1             0.402573    [1[8[6]]]                                                   
  H          -1.778877             5.212107             2.696069            1             0.031932    [1[6[8][1][1]]]                                             
  H          -2.412426             5.766680             4.321625            1             0.031932    [1[6[8][1][1]]]                                             
  H          -0.781324             5.349561             4.199004            1             0.031932    [1[6[8][1][1]]]                                             
