12

  C          -3.245610             4.766604             5.925738            0             0.099454    [6[8[1]][1][1][1]]                                          
  O          -2.105204             5.526825             5.753957            0            -0.597823    [8[6[1][1][1]][1]]                                          
  H          -2.061038             5.470847             4.812791            0             0.402573    [1[8[6]]]                                                   
  H          -3.398093             4.514218             6.964937            0             0.031932    [1[6[8][1][1]]]                                             
  H          -4.115643             5.335577             5.674308            0             0.031932    [1[6[8][1][1]]]                                             
  H          -3.145554             3.834048             5.296263            0             0.031932    [1[6[8][1][1]]]                                             
  C          -2.448626             5.690601             9.930628            1             0.099454    [6[8[1]][1][1][1]]                                          
  O          -2.384524             6.628050             8.851840            1            -0.597823    [8[6[1][1][1]][1]]                                          
  H          -1.761138             6.529912             8.172932            1             0.402573    [1[8[6]]]                                                   
  H          -1.634249             5.681301             10.645902           1             0.031932    [1[6[8][1][1]]]                                             
  H          -3.371178             5.764819             10.581678           1             0.031932    [1[6[8][1][1]]]                                             
  H          -2.443107             4.654184             9.502492            1             0.031932    [1[6[8][1][1]]]                                             
