12

  C           7.139799             11.030505           -4.060761            0             0.099454    [6[8[1]][1][1][1]]                                          
  O           7.225816             10.885783           -5.419864            0            -0.597823    [8[6[1][1][1]][1]]                                          
  H           7.208605             9.944147            -5.620247            0             0.402573    [1[8[6]]]                                                   
  H           6.095317             10.984809           -3.796295            0             0.031932    [1[6[8][1][1]]]                                             
  H           7.477387             10.165049           -3.499051            0             0.031932    [1[6[8][1][1]]]                                             
  H           7.597012             11.857664           -3.601412            0             0.031932    [1[6[8][1][1]]]                                             
  C           7.161267             6.953844            -6.328759            1             0.099454    [6[8[1]][1][1][1]]                                          
  O           6.565770             8.249048            -6.450163            1            -0.597823    [8[6[1][1][1]][1]]                                          
  H           5.623843             8.067112            -6.211825            1             0.402573    [1[8[6]]]                                                   
  H           8.046157             6.925746            -6.902645            1             0.031932    [1[6[8][1][1]]]                                             
  H           7.507824             6.780331            -5.271938            1             0.031932    [1[6[8][1][1]]]                                             
  H           6.447298             6.227622            -6.655698            1             0.031932    [1[6[8][1][1]]]                                             
