12

  C           3.721256             2.865454             0.278842            0             0.099454    [6[8[1]][1][1][1]]                                          
  O           3.810652             4.224513             0.718855            0            -0.597823    [8[6[1][1][1]][1]]                                          
  H           3.847158             4.251311             1.654711            0             0.402573    [1[8[6]]]                                                   
  H           4.630489             2.337793             0.330650            0             0.031932    [1[6[8][1][1]]]                                             
  H           3.118835             2.213713             0.975832            0             0.031932    [1[6[8][1][1]]]                                             
  H           3.309772             2.784025            -0.718189            0             0.031932    [1[6[8][1][1]]]                                             
  C           6.993456             2.479457            -2.172974            1             0.099454    [6[8[1]][1][1][1]]                                          
  O           6.418240             1.516134            -1.316965            1            -0.597823    [8[6[1][1][1]][1]]                                          
  H           6.912548             1.584507            -0.524388            1             0.402573    [1[8[6]]]                                                   
  H           7.367645             3.342233            -1.621654            1             0.031932    [1[6[8][1][1]]]                                             
  H           7.825218             2.200421            -2.765918            1             0.031932    [1[6[8][1][1]]]                                             
  H           6.334212             2.904831            -2.911894            1             0.031932    [1[6[8][1][1]]]                                             
