12

  C           6.699430            -5.657267            -0.260360            0             0.099454    [6[8[1]][1][1][1]]                                          
  O           6.373375            -4.714772             0.735711            0            -0.597823    [8[6[1][1][1]][1]]                                          
  H           6.683855            -5.044267             1.572619            0             0.402573    [1[8[6]]]                                                   
  H           6.083675            -5.429119            -1.111410            0             0.031932    [1[6[8][1][1]]]                                             
  H           7.752837            -5.548398            -0.640329            0             0.031932    [1[6[8][1][1]]]                                             
  H           6.603195            -6.639985             0.122955            0             0.031932    [1[6[8][1][1]]]                                             
  C           9.769262            -7.615812             2.790514            1             0.099454    [6[8[1]][1][1][1]]                                          
  O           9.008216            -7.107357             3.842723            1            -0.597823    [8[6[1][1][1]][1]]                                          
  H           8.368611            -6.424583             3.579696            1             0.402573    [1[8[6]]]                                                   
  H           10.096084           -6.844270             2.058707            1             0.031932    [1[6[8][1][1]]]                                             
  H           10.680623           -8.247981             3.015261            1             0.031932    [1[6[8][1][1]]]                                             
  H           9.048074            -8.278139             2.241576            1             0.031932    [1[6[8][1][1]]]                                             
