12

  C          -4.021581             2.799748            -3.951247            0             0.099454    [6[8[1]][1][1][1]]                                          
  O          -3.968984             3.408857            -2.693875            0            -0.597823    [8[6[1][1][1]][1]]                                          
  H          -3.428997             4.133400            -2.976944            0             0.402573    [1[8[6]]]                                                   
  H          -4.837682             2.116741            -4.115847            0             0.031932    [1[6[8][1][1]]]                                             
  H          -4.388551             3.544017            -4.698766            0             0.031932    [1[6[8][1][1]]]                                             
  H          -3.031499             2.512948            -4.232440            0             0.031932    [1[6[8][1][1]]]                                             
  C          -0.007571             2.884202             0.553842            1             0.099454    [6[8[1]][1][1][1]]                                          
  O          -0.961278             2.596705            -0.447890            1            -0.597823    [8[6[1][1][1]][1]]                                          
  H          -1.309672             3.448110            -0.727636            1             0.402573    [1[8[6]]]                                                   
  H          -0.458122             3.474589             1.324680            1             0.031932    [1[6[8][1][1]]]                                             
  H           0.421138             2.083740             1.150053            1             0.031932    [1[6[8][1][1]]]                                             
  H           0.747337             3.588553             0.238310            1             0.031932    [1[6[8][1][1]]]                                             
