12

  C          -8.448119             2.442185            -5.118233            0             0.099454    [6[8[1]][1][1][1]]                                          
  O          -7.831945             1.753476            -4.059607            0            -0.597823    [8[6[1][1][1]][1]]                                          
  H          -8.251878             0.862124            -3.916511            0             0.402573    [1[8[6]]]                                                   
  H          -9.518605             2.289483            -5.032777            0             0.031932    [1[6[8][1][1]]]                                             
  H          -8.197066             3.464053            -5.152794            0             0.031932    [1[6[8][1][1]]]                                             
  H          -8.176135             2.038059            -6.035437            0             0.031932    [1[6[8][1][1]]]                                             
  C          -8.520940             6.286076            -4.403232            1             0.099454    [6[8[1]][1][1][1]]                                          
  O          -8.997023             5.176493            -3.581516            1            -0.597823    [8[6[1][1][1]][1]]                                          
  H          -8.221202             4.683733            -3.330389            1             0.402573    [1[8[6]]]                                                   
  H          -8.499745             7.139739            -3.784151            1             0.031932    [1[6[8][1][1]]]                                             
  H          -7.524745             6.049312            -4.681727            1             0.031932    [1[6[8][1][1]]]                                             
  H          -9.098874             6.502751            -5.312107            1             0.031932    [1[6[8][1][1]]]                                             
