12

  C          -4.378102             8.116178            -2.250395            0             0.099454    [6[8[1]][1][1][1]]                                          
  O          -3.265974             7.812544            -1.458457            0            -0.597823    [8[6[1][1][1]][1]]                                          
  H          -2.526704             7.889954            -2.099805            0             0.402573    [1[8[6]]]                                                   
  H          -4.643488             7.304127            -2.928239            0             0.031932    [1[6[8][1][1]]]                                             
  H          -5.245410             8.405091            -1.698347            0             0.031932    [1[6[8][1][1]]]                                             
  H          -4.190495             8.981392            -2.876955            0             0.031932    [1[6[8][1][1]]]                                             
  C          -1.190909             10.327106            1.281165            1             0.099454    [6[8[1]][1][1][1]]                                          
  O          -2.215405             10.697744            0.441225            1            -0.597823    [8[6[1][1][1]][1]]                                          
  H          -2.278766             9.994102            -0.216100            1             0.402573    [1[8[6]]]                                                   
  H          -0.267089             10.114509            0.636570            1             0.031932    [1[6[8][1][1]]]                                             
  H          -1.034651             11.061205            2.086478            1             0.031932    [1[6[8][1][1]]]                                             
  H          -1.474296             9.360939             1.762400            1             0.031932    [1[6[8][1][1]]]                                             
