12

  C           3.632446            -6.994954             3.184119            0             0.099454    [6[8[1]][1][1][1]]                                          
  O           4.407674            -7.329784             1.949356            0            -0.597823    [8[6[1][1][1]][1]]                                          
  H           4.084722            -6.757850             1.277197            0             0.402573    [1[8[6]]]                                                   
  H           3.654814            -7.907382             3.783212            0             0.031932    [1[6[8][1][1]]]                                             
  H           4.085916            -6.202538             3.691906            0             0.031932    [1[6[8][1][1]]]                                             
  H           2.536765            -6.837212             2.963092            0             0.031932    [1[6[8][1][1]]]                                             
  C           1.949965            -4.019189             3.124493            1             0.099454    [6[8[1]][1][1][1]]                                          
  O           1.630126            -4.411812             4.465837            1            -0.597823    [8[6[1][1][1]][1]]                                          
  H           2.438127            -4.855578             4.705124            1             0.402573    [1[8[6]]]                                                   
  H           1.123352            -3.474775             2.600783            1             0.031932    [1[6[8][1][1]]]                                             
  H           2.786890            -3.248862             3.120486            1             0.031932    [1[6[8][1][1]]]                                             
  H           2.187356            -4.831305             2.493141            1             0.031932    [1[6[8][1][1]]]                                             
