12

  C          -1.953081             0.452528            -0.283085            0             0.099454    [6[8[1]][1][1][1]]                                          
  O          -2.417833             1.621188             0.379749            0            -0.597823    [8[6[1][1][1]][1]]                                          
  H          -2.843032             1.413224             1.202916            0             0.402573    [1[8[6]]]                                                   
  H          -2.778291            -0.140561            -0.668962            0             0.031932    [1[6[8][1][1]]]                                             
  H          -1.331316             0.778315            -1.150622            0             0.031932    [1[6[8][1][1]]]                                             
  H          -1.219793            -0.095008             0.314135            0             0.031932    [1[6[8][1][1]]]                                             
  C          -4.588792             3.138124            -1.636857            1             0.099454    [6[8[1]][1][1][1]]                                          
  O          -3.225731             3.052331            -1.798176            1            -0.597823    [8[6[1][1][1]][1]]                                          
  H          -2.739190             2.657665            -1.073676            1             0.402573    [1[8[6]]]                                                   
  H          -4.763914             3.379079            -0.588357            1             0.031932    [1[6[8][1][1]]]                                             
  H          -4.966611             3.934520            -2.305763            1             0.031932    [1[6[8][1][1]]]                                             
  H          -5.112813             2.244717            -1.828312            1             0.031932    [1[6[8][1][1]]]                                             
