12

  C           6.086307            -8.339000            -1.950974            0             0.099454    [6[8[1]][1][1][1]]                                          
  O           7.119211            -9.239033            -2.344616            0            -0.597823    [8[6[1][1][1]][1]]                                          
  H           7.924299            -8.996173            -1.920066            0             0.402573    [1[8[6]]]                                                   
  H           5.204355            -8.539009            -2.582275            0             0.031932    [1[6[8][1][1]]]                                             
  H           5.796177            -8.560167            -0.931467            0             0.031932    [1[6[8][1][1]]]                                             
  H           6.260960            -7.216122            -2.022520            0             0.031932    [1[6[8][1][1]]]                                             
  C           10.504551           -11.180506           -0.179575            1             0.099454    [6[8[1]][1][1][1]]                                          
  O           9.425508            -11.131380           -1.103996            1            -0.597823    [8[6[1][1][1]][1]]                                          
  H           8.716325            -10.826452           -0.523253            1             0.402573    [1[8[6]]]                                                   
  H           10.316046           -11.977736            0.589473            1             0.031932    [1[6[8][1][1]]]                                             
  H           11.376198           -11.512109           -0.812800            1             0.031932    [1[6[8][1][1]]]                                             
  H           10.759810           -10.249666            0.345818            1             0.031932    [1[6[8][1][1]]]                                             
