12

  C           10.369788           -1.022027             1.137112            0             0.099454    [6[8[1]][1][1][1]]                                          
  O           9.385676            -0.662923             2.037067            0            -0.597823    [8[6[1][1][1]][1]]                                          
  H           8.915815            -1.406507             2.396030            0             0.402573    [1[8[6]]]                                                   
  H           9.951602            -1.529467             0.290434            0             0.031932    [1[6[8][1][1]]]                                             
  H           10.979370           -0.132618             0.842871            0             0.031932    [1[6[8][1][1]]]                                             
  H           10.919377           -1.856796             1.581003            0             0.031932    [1[6[8][1][1]]]                                             
  C           10.465747            2.642601            -3.006390            1             0.099454    [6[8[1]][1][1][1]]                                          
  O           11.365031            1.578863            -3.139401            1            -0.597823    [8[6[1][1][1]][1]]                                          
  H           12.139437            1.915457            -3.631726            1             0.402573    [1[8[6]]]                                                   
  H           9.537111             2.306168            -2.554527            1             0.031932    [1[6[8][1][1]]]                                             
  H           10.851904            3.486465            -2.475135            1             0.031932    [1[6[8][1][1]]]                                             
  H           10.167365            2.986200            -4.020478            1             0.031932    [1[6[8][1][1]]]                                             
