6
Coordinates from ORCA-job 6_geo_opt
  C   3.01130899938931     -1.18098496544148      0.59853813763280
  O   4.39450339527176     -1.12716746122569      0.87490598817912
  H   4.77221593587804     -0.37871432894191      0.41232928930805
  H   2.80653628146900     -1.31894943737072     -0.46932239214215
  H   2.61144729770735     -2.04025712670572      1.13590776566060
  H   2.48566609028455     -0.28415168031448      0.94598521136159
