12

  C           6.482871             0.175619            -3.124092            0             0.099454    [6[8[1]][1][1][1]]                                          
  O           5.876064             1.479061            -3.086430            0            -0.597823    [8[6[1][1][1]][1]]                                          
  H           5.127288             1.460981            -2.485195            0             0.402573    [1[8[6]]]                                                   
  H           6.305677            -0.243266            -2.102666            0             0.031932    [1[6[8][1][1]]]                                             
  H           5.921835            -0.472918            -3.836024            0             0.031932    [1[6[8][1][1]]]                                             
  H           7.590044             0.153542            -3.268757            0             0.031932    [1[6[8][1][1]]]                                             
  C           4.706203             3.239788             0.780180            1             0.099454    [6[8[1]][1][1][1]]                                          
  O           4.902455             3.772127            -0.475501            1            -0.597823    [8[6[1][1][1]][1]]                                          
  H           5.840434             3.599339            -0.761379            1             0.402573    [1[8[6]]]                                                   
  H           5.637058             3.269896             1.351008            1             0.031932    [1[6[8][1][1]]]                                             
  H           3.858075             3.700776             1.224186            1             0.031932    [1[6[8][1][1]]]                                             
  H           4.302059             2.223933             0.724914            1             0.031932    [1[6[8][1][1]]]                                             
