12

  C           2.788778             7.113822             10.181854           0             0.099454    [6[8[1]][1][1][1]]                                          
  O           3.801655             6.976364             9.220775            0            -0.597823    [8[6[1][1][1]][1]]                                          
  H           4.465584             6.400968             9.529224            0             0.402573    [1[8[6]]]                                                   
  H           2.109126             6.241315             10.280435           0             0.031932    [1[6[8][1][1]]]                                             
  H           3.263922             7.233564             11.141851           0             0.031932    [1[6[8][1][1]]]                                             
  H           2.128043             7.959936             9.959660            0             0.031932    [1[6[8][1][1]]]                                             
  C           8.756345             5.346527             9.124602            1             0.099454    [6[8[1]][1][1][1]]                                          
  O           7.432067             5.202244             8.847964            1            -0.597823    [8[6[1][1][1]][1]]                                          
  H           7.096865             4.293952             8.916372            1             0.402573    [1[8[6]]]                                                   
  H           9.291302             4.993951             8.215409            1             0.031932    [1[6[8][1][1]]]                                             
  H           9.107427             6.443233             9.263130            1             0.031932    [1[6[8][1][1]]]                                             
  H           8.972218             4.789132             10.079502           1             0.031932    [1[6[8][1][1]]]                                             
