12

  C           3.694090             0.378957            -6.877183            0             0.099454    [6[8[1]][1][1][1]]                                          
  O           2.913124            -0.000757            -5.751815            0            -0.597823    [8[6[1][1][1]][1]]                                          
  H           1.927826            -0.047381            -5.934338            0             0.402573    [1[8[6]]]                                                   
  H           3.797572            -0.408838            -7.616210            0             0.031932    [1[6[8][1][1]]]                                             
  H           3.427840             1.291935            -7.408147            0             0.031932    [1[6[8][1][1]]]                                             
  H           4.631567             0.640459            -6.494055            0             0.031932    [1[6[8][1][1]]]                                             
  C          -0.695942            -1.118168            -4.644641            1             0.099454    [6[8[1]][1][1][1]]                                          
  O          -0.689851             0.124149            -5.212528            1            -0.597823    [8[6[1][1][1]][1]]                                          
  H          -0.049258             0.673570            -4.677234            1             0.402573    [1[8[6]]]                                                   
  H          -0.102550            -1.842898            -5.168804            1             0.031932    [1[6[8][1][1]]]                                             
  H          -0.440777            -1.019185            -3.624721            1             0.031932    [1[6[8][1][1]]]                                             
  H          -1.700991            -1.589887            -4.669325            1             0.031932    [1[6[8][1][1]]]                                             
