12

  C          -3.437521             1.743393             9.429279            0             0.099454    [6[8[1]][1][1][1]]                                          
  O          -2.392920             2.601094             8.968135            0            -0.597823    [8[6[1][1][1]][1]]                                          
  H          -2.789431             3.445956             8.752653            0             0.402573    [1[8[6]]]                                                   
  H          -3.842162             2.153886             10.347907           0             0.031932    [1[6[8][1][1]]]                                             
  H          -4.226505             1.590673             8.576255            0             0.031932    [1[6[8][1][1]]]                                             
  H          -3.060894             0.726974             9.753936            0             0.031932    [1[6[8][1][1]]]                                             
  C          -3.634617             5.482813             6.223014            1             0.099454    [6[8[1]][1][1][1]]                                          
  O          -3.845451             4.558936             7.253444            1            -0.597823    [8[6[1][1][1]][1]]                                          
  H          -3.837731             5.120619             8.113329            1             0.402573    [1[8[6]]]                                                   
  H          -2.854401             6.247456             6.538076            1             0.031932    [1[6[8][1][1]]]                                             
  H          -3.288832             4.977465             5.315011            1             0.031932    [1[6[8][1][1]]]                                             
  H          -4.539207             5.985702             5.839303            1             0.031932    [1[6[8][1][1]]]                                             
