12

  C           9.510002             3.753170            -5.325528            0             0.099454    [6[8[1]][1][1][1]]                                          
  O           9.876401             4.225670            -4.068210            0            -0.597823    [8[6[1][1][1]][1]]                                          
  H           10.364098            5.018810            -4.265636            0             0.402573    [1[8[6]]]                                                   
  H           8.978419             2.857762            -5.197583            0             0.031932    [1[6[8][1][1]]]                                             
  H           8.779346             4.325251            -5.874902            0             0.031932    [1[6[8][1][1]]]                                             
  H           10.363160            3.582555            -6.031037            0             0.031932    [1[6[8][1][1]]]                                             
  C           7.161267             6.953844            -6.328759            1             0.099454    [6[8[1]][1][1][1]]                                          
  O           6.565770             8.249048            -6.450163            1            -0.597823    [8[6[1][1][1]][1]]                                          
  H           5.623843             8.067112            -6.211825            1             0.402573    [1[8[6]]]                                                   
  H           8.046157             6.925746            -6.902645            1             0.031932    [1[6[8][1][1]]]                                             
  H           7.507824             6.780331            -5.271938            1             0.031932    [1[6[8][1][1]]]                                             
  H           6.447298             6.227622            -6.655698            1             0.031932    [1[6[8][1][1]]]                                             
