12

  C           6.919625             2.237632             2.945838            0             0.099454    [6[8[1]][1][1][1]]                                          
  O           7.105568             3.614791             3.004067            0            -0.597823    [8[6[1][1][1]][1]]                                          
  H           7.927648             3.903414             2.617584            0             0.402573    [1[8[6]]]                                                   
  H           7.422164             1.719098             3.729250            0             0.031932    [1[6[8][1][1]]]                                             
  H           5.841692             1.966989             3.041488            0             0.031932    [1[6[8][1][1]]]                                             
  H           7.318918             1.785904             1.953686            0             0.031932    [1[6[8][1][1]]]                                             
  C           6.381632            -1.870875             3.659416            1             0.099454    [6[8[1]][1][1][1]]                                          
  O           6.865294            -2.428046             2.462627            1            -0.597823    [8[6[1][1][1]][1]]                                          
  H           7.177478            -3.339419             2.607261            1             0.402573    [1[8[6]]]                                                   
  H           5.847585            -2.577557             4.305369            1             0.031932    [1[6[8][1][1]]]                                             
  H           7.275320            -1.535234             4.225810            1             0.031932    [1[6[8][1][1]]]                                             
  H           5.685898            -1.053315             3.452593            1             0.031932    [1[6[8][1][1]]]                                             
