12

  C           3.000813            -5.041228             10.565533           0             0.099454    [6[8[1]][1][1][1]]                                          
  O           2.407379            -6.339526             10.869800           0            -0.597823    [8[6[1][1][1]][1]]                                          
  H           2.625145            -6.452515             11.794935           0             0.402573    [1[8[6]]]                                                   
  H           2.971662            -4.819013             9.434081            0             0.031932    [1[6[8][1][1]]]                                             
  H           2.508815            -4.257876             11.166867           0             0.031932    [1[6[8][1][1]]]                                             
  H           4.081495            -5.035408             10.772645           0             0.031932    [1[6[8][1][1]]]                                             
  C           0.607011            -7.194764             7.583531            1             0.099454    [6[8[1]][1][1][1]]                                          
  O          -0.015900            -7.070037             8.815631            1            -0.597823    [8[6[1][1][1]][1]]                                          
  H           0.676511            -6.625302             9.362851            1             0.402573    [1[8[6]]]                                                   
  H           1.573130            -7.713759             7.717677            1             0.031932    [1[6[8][1][1]]]                                             
  H          -0.049744            -7.504817             6.721387            1             0.031932    [1[6[8][1][1]]]                                             
  H           0.908719            -6.242453             7.211065            1             0.031932    [1[6[8][1][1]]]                                             
