12

  C          -8.719428            -0.806688             2.256153            0             0.099454    [6[8[1]][1][1][1]]                                          
  O          -10.041191           -1.234781             2.494380            0            -0.597823    [8[6[1][1][1]][1]]                                          
  H          -10.144787           -1.521010             3.361301            0             0.402573    [1[8[6]]]                                                   
  H          -8.220031            -0.383521             3.209562            0             0.031932    [1[6[8][1][1]]]                                             
  H          -8.128405            -1.587988             1.732554            0             0.031932    [1[6[8][1][1]]]                                             
  H          -8.726105             0.059084             1.528395            0             0.031932    [1[6[8][1][1]]]                                             
  C          -5.938019             1.396045            -1.010357            1             0.099454    [6[8[1]][1][1][1]]                                          
  O          -5.780449             2.649759            -0.478520            1            -0.597823    [8[6[1][1][1]][1]]                                          
  H          -5.146989             3.115646            -1.048343            1             0.402573    [1[8[6]]]                                                   
  H          -5.745337             1.479658            -2.080329            1             0.031932    [1[6[8][1][1]]]                                             
  H          -5.070851             0.715713            -0.818665            1             0.031932    [1[6[8][1][1]]]                                             
  H          -6.876233             0.889256            -0.793456            1             0.031932    [1[6[8][1][1]]]                                             
