6

  C           2.423546             4.429680            -11.388803           0             0.089063    [6[8[1]][1][1][1]]                                          
  O           3.783548             4.060196            -11.070517           0            -0.604789    [8[6[1][1][1]][1]]                                          
  H           4.287586             3.897044            -11.841828           0             0.406250    [1[8[6]]]                                                   
  H           2.061311             4.948973            -10.503470           0             0.036492    [1[6[8][1][1]]]                                             
  H           2.311559             5.098194            -12.221833           0             0.036492    [1[6[8][1][1]]]                                             
  H           1.884603             3.455783            -11.475382           0             0.036492    [1[6[8][1][1]]]                                             
