12

  C           9.852805             2.536986             6.346321            0             0.099454    [6[8[1]][1][1][1]]                                          
  O           10.621081            3.442054             7.096839            0            -0.597823    [8[6[1][1][1]][1]]                                          
  H           11.562770            3.264983             7.108243            0             0.402573    [1[8[6]]]                                                   
  H           10.217700            2.501247             5.300806            0             0.031932    [1[6[8][1][1]]]                                             
  H           9.950374             1.489941             6.691329            0             0.031932    [1[6[8][1][1]]]                                             
  H           8.787887             2.747556             6.456401            0             0.031932    [1[6[8][1][1]]]                                             
  C           10.919950            5.229899             4.053784            1             0.099454    [6[8[1]][1][1][1]]                                          
  O           11.224414            5.982413             5.237065            1            -0.597823    [8[6[1][1][1]][1]]                                          
  H           11.046507            5.502677             6.047237            1             0.402573    [1[8[6]]]                                                   
  H           10.228900            4.416066             4.252768            1             0.031932    [1[6[8][1][1]]]                                             
  H           10.352604            5.947194             3.401604            1             0.031932    [1[6[8][1][1]]]                                             
  H           11.862323            4.890610             3.525476            1             0.031932    [1[6[8][1][1]]]                                             
