12

  C          -1.552654            -0.347999             4.263472            0             0.099454    [6[8[1]][1][1][1]]                                          
  O          -0.675985            -0.786314             3.238730            0            -0.597823    [8[6[1][1][1]][1]]                                          
  H          -1.311521            -0.903148             2.507645            0             0.402573    [1[8[6]]]                                                   
  H          -1.893925             0.644904             3.934240            0             0.031932    [1[6[8][1][1]]]                                             
  H          -2.420135            -0.936720             4.503697            0             0.031932    [1[6[8][1][1]]]                                             
  H          -1.047543            -0.169033             5.200596            0             0.031932    [1[6[8][1][1]]]                                             
  C          -0.553660             0.821241             9.795528            1             0.099454    [6[8[1]][1][1][1]]                                          
  O           0.118719            -0.429037             9.661285            1            -0.597823    [8[6[1][1][1]][1]]                                          
  H           1.089943            -0.350548             9.540765            1             0.402573    [1[8[6]]]                                                   
  H          -1.549963             0.685756             10.157904           1             0.031932    [1[6[8][1][1]]]                                             
  H          -0.102725             1.589450             10.454278           1             0.031932    [1[6[8][1][1]]]                                             
  H          -0.618877             1.299944             8.856339            1             0.031932    [1[6[8][1][1]]]                                             
