12

  C           5.111816             11.315297           -1.583076            0             0.099454    [6[8[1]][1][1][1]]                                          
  O           4.924592             11.111814           -2.969516            0            -0.597823    [8[6[1][1][1]][1]]                                          
  H           4.468329             10.305470           -3.080474            0             0.402573    [1[8[6]]]                                                   
  H           5.285687             10.443004           -1.053035            0             0.031932    [1[6[8][1][1]]]                                             
  H           5.970411             11.931998           -1.384776            0             0.031932    [1[6[8][1][1]]]                                             
  H           4.228074             11.748586           -1.120460            0             0.031932    [1[6[8][1][1]]]                                             
  C           8.783038             8.232855            -1.990655            1             0.099454    [6[8[1]][1][1][1]]                                          
  O           7.959055             9.017466            -2.803580            1            -0.597823    [8[6[1][1][1]][1]]                                          
  H           7.222606             8.571981            -3.252120            1             0.402573    [1[8[6]]]                                                   
  H           8.243083             8.009872            -1.036419            1             0.031932    [1[6[8][1][1]]]                                             
  H           9.057238             7.339805            -2.492352            1             0.031932    [1[6[8][1][1]]]                                             
  H           9.702328             8.807065            -1.680581            1             0.031932    [1[6[8][1][1]]]                                             
