12

  C           7.010154            -0.039045            -9.433605            0             0.099454    [6[8[1]][1][1][1]]                                          
  O           8.270154             0.587972            -9.839625            0            -0.597823    [8[6[1][1][1]][1]]                                          
  H           8.487820             0.297724            -10.722834           0             0.402573    [1[8[6]]]                                                   
  H           6.245528             0.058010            -10.219982           0             0.031932    [1[6[8][1][1]]]                                             
  H           7.161661            -1.110750            -9.489318            0             0.031932    [1[6[8][1][1]]]                                             
  H           6.696794             0.214839            -8.443639            0             0.031932    [1[6[8][1][1]]]                                             
  C           2.873291            -2.529165            -7.643603            1             0.099454    [6[8[1]][1][1][1]]                                          
  O           3.707500            -3.600925            -7.742358            1            -0.597823    [8[6[1][1][1]][1]]                                          
  H           4.663623            -3.302338            -7.745049            1             0.402573    [1[8[6]]]                                                   
  H           1.923567            -2.610872            -8.190210            1             0.031932    [1[6[8][1][1]]]                                             
  H           2.564570            -2.405424            -6.552309            1             0.031932    [1[6[8][1][1]]]                                             
  H           3.394196            -1.553683            -7.938926            1             0.031932    [1[6[8][1][1]]]                                             
