12

  C          -3.794272             2.293692             8.882736            0             0.099454    [6[8[1]][1][1][1]]                                          
  O          -4.806415             2.716572             7.958103            0            -0.597823    [8[6[1][1][1]][1]]                                          
  H          -5.271343             1.986556             7.505574            0             0.402573    [1[8[6]]]                                                   
  H          -3.395406             1.318723             8.520923            0             0.031932    [1[6[8][1][1]]]                                             
  H          -3.000333             2.959490             8.972679            0             0.031932    [1[6[8][1][1]]]                                             
  H          -4.124509             2.106691             9.882683            0             0.031932    [1[6[8][1][1]]]                                             
  C          -7.625825            -2.118438             6.216507            1             0.099454    [6[8[1]][1][1][1]]                                          
  O          -6.382549            -1.543956             6.599083            1            -0.597823    [8[6[1][1][1]][1]]                                          
  H          -6.301052            -0.573742             6.507122            1             0.402573    [1[8[6]]]                                                   
  H          -7.759299            -3.193026             6.659678            1             0.031932    [1[6[8][1][1]]]                                             
  H          -8.447343            -1.473519             6.457667            1             0.031932    [1[6[8][1][1]]]                                             
  H          -7.672048            -2.337438             5.139044            1             0.031932    [1[6[8][1][1]]]                                             
