12

  C           0.886549             0.822237             10.406532           0             0.099454    [6[8[1]][1][1][1]]                                          
  O          -0.359793             0.971877             9.692236            0            -0.597823    [8[6[1][1][1]][1]]                                          
  H          -0.550626             0.048280             9.716713            0             0.402573    [1[8[6]]]                                                   
  H           1.518922             1.710716             10.116938           0             0.031932    [1[6[8][1][1]]]                                             
  H           0.664286             0.723875             11.450918           0             0.031932    [1[6[8][1][1]]]                                             
  H           1.397309            -0.146132             10.165140           0             0.031932    [1[6[8][1][1]]]                                             
  C           5.252981            -0.803003             7.182503            1             0.099454    [6[8[1]][1][1][1]]                                          
  O           5.599119            -0.796855             5.796567            1            -0.597823    [8[6[1][1][1]][1]]                                          
  H           4.741925            -0.668005             5.308270            1             0.402573    [1[8[6]]]                                                   
  H           5.988763            -1.259529             7.777616            1             0.031932    [1[6[8][1][1]]]                                             
  H           5.132993             0.267707             7.477022            1             0.031932    [1[6[8][1][1]]]                                             
  H           4.233948            -1.214135             7.383336            1             0.031932    [1[6[8][1][1]]]                                             
