12

  C           0.745206            -3.975291            -0.579764            0             0.099454    [6[8[1]][1][1][1]]                                          
  O           0.307130            -2.700104            -0.591971            0            -0.597823    [8[6[1][1][1]][1]]                                          
  H           0.261849            -2.321639             0.278129            0             0.402573    [1[8[6]]]                                                   
  H           1.456053            -4.077456             0.239534            0             0.031932    [1[6[8][1][1]]]                                             
  H          -0.000700            -4.631247            -0.176744            0             0.031932    [1[6[8][1][1]]]                                             
  H           1.118313            -4.411004            -1.534896            0             0.031932    [1[6[8][1][1]]]                                             
  C          -2.777194            -0.270792             0.949009            1             0.099454    [6[8[1]][1][1][1]]                                          
  O          -1.995689            -1.417188             1.100612            1            -0.597823    [8[6[1][1][1]][1]]                                          
  H          -1.644728            -1.674541             1.990131            1             0.402573    [1[8[6]]]                                                   
  H          -2.231855             0.680778             0.936263            1             0.031932    [1[6[8][1][1]]]                                             
  H          -3.323798            -0.297364             0.091819            1             0.031932    [1[6[8][1][1]]]                                             
  H          -3.522735            -0.224258             1.774500            1             0.031932    [1[6[8][1][1]]]                                             
