12

  C           5.213601            -6.424230             1.445439            0             0.099454    [6[8[1]][1][1][1]]                                          
  O           5.630218            -5.208946             2.075847            0            -0.597823    [8[6[1][1][1]][1]]                                          
  H           5.563530            -4.576802             1.354313            0             0.402573    [1[8[6]]]                                                   
  H           5.329758            -7.331916             2.140380            0             0.031932    [1[6[8][1][1]]]                                             
  H           4.144093            -6.377885             1.182249            0             0.031932    [1[6[8][1][1]]]                                             
  H           5.866397            -6.714165             0.524728            0             0.031932    [1[6[8][1][1]]]                                             
  C           4.774426            -8.100343            -2.462904            1             0.099454    [6[8[1]][1][1][1]]                                          
  O           3.775210            -8.706812            -3.317403            1            -0.597823    [8[6[1][1][1]][1]]                                          
  H           3.715647            -9.629430            -3.337274            1             0.402573    [1[8[6]]]                                                   
  H           5.720722            -8.688947            -2.542135            1             0.031932    [1[6[8][1][1]]]                                             
  H           5.002248            -7.044043            -2.599598            1             0.031932    [1[6[8][1][1]]]                                             
  H           4.446611            -8.023833            -1.378385            1             0.031932    [1[6[8][1][1]]]                                             
