12

  C          -5.894835            -4.536025             1.406599            0             0.099454    [6[8[1]][1][1][1]]                                          
  O          -5.274735            -3.349634             1.808370            0            -0.597823    [8[6[1][1][1]][1]]                                          
  H          -5.727982            -3.102801             2.615311            0             0.402573    [1[8[6]]]                                                   
  H          -5.648396            -4.665075             0.317086            0             0.031932    [1[6[8][1][1]]]                                             
  H          -5.501447            -5.436554             1.904823            0             0.031932    [1[6[8][1][1]]]                                             
  H          -6.964361            -4.431291             1.368194            0             0.031932    [1[6[8][1][1]]]                                             
  C          -5.117859            -3.276078             5.133270            1             0.099454    [6[8[1]][1][1][1]]                                          
  O          -6.298040            -2.714950             4.519326            1            -0.597823    [8[6[1][1][1]][1]]                                          
  H          -6.725949            -2.365606             5.340582            1             0.402573    [1[8[6]]]                                                   
  H          -4.632843            -2.580923             5.858612            1             0.031932    [1[6[8][1][1]]]                                             
  H          -5.226647            -4.263213             5.640708            1             0.031932    [1[6[8][1][1]]]                                             
  H          -4.283180            -3.493743             4.528595            1             0.031932    [1[6[8][1][1]]]                                             
