12

  C          -3.541612             8.218738            -6.097579            0             0.099454    [6[8[1]][1][1][1]]                                          
  O          -2.500026             7.841059            -5.165467            0            -0.597823    [8[6[1][1][1]][1]]                                          
  H          -2.808424             8.091062            -4.276652            0             0.402573    [1[8[6]]]                                                   
  H          -4.504519             8.175344            -5.636522            0             0.031932    [1[6[8][1][1]]]                                             
  H          -3.270904             9.255707            -6.480989            0             0.031932    [1[6[8][1][1]]]                                             
  H          -3.586497             7.616042            -6.948879            0             0.031932    [1[6[8][1][1]]]                                             
  C          -4.752948             5.591868            -4.181413            1             0.099454    [6[8[1]][1][1][1]]                                          
  O          -5.139830             4.777113            -3.073725            1            -0.597823    [8[6[1][1][1]][1]]                                          
  H          -5.629639             5.350930            -2.456730            1             0.402573    [1[8[6]]]                                                   
  H          -5.593928             6.236357            -4.410818            1             0.031932    [1[6[8][1][1]]]                                             
  H          -3.803955             6.184682            -4.018049            1             0.031932    [1[6[8][1][1]]]                                             
  H          -4.579629             4.990443            -5.082851            1             0.031932    [1[6[8][1][1]]]                                             
