12

  C          -9.376882             2.477543            -4.713638            0             0.099454    [6[8[1]][1][1][1]]                                          
  O          -8.879101             1.249759            -4.251672            0            -0.597823    [8[6[1][1][1]][1]]                                          
  H          -8.504587             1.328272            -3.362079            0             0.402573    [1[8[6]]]                                                   
  H          -8.510873             3.150077            -4.795730            0             0.031932    [1[6[8][1][1]]]                                             
  H          -9.919677             2.295343            -5.655822            0             0.031932    [1[6[8][1][1]]]                                             
  H          -10.081456            2.950234            -3.991283            0             0.031932    [1[6[8][1][1]]]                                             
  C          -7.665083             6.775921            -4.890714            1             0.099454    [6[8[1]][1][1][1]]                                          
  O          -6.306933             7.193656            -4.919434            1            -0.597823    [8[6[1][1][1]][1]]                                          
  H          -5.876818             6.386052            -5.075891            1             0.402573    [1[8[6]]]                                                   
  H          -7.679441             5.712841            -4.702631            1             0.031932    [1[6[8][1][1]]]                                             
  H          -8.222908             7.329902            -4.165676            1             0.031932    [1[6[8][1][1]]]                                             
  H          -8.192005             6.987732            -5.810565            1             0.031932    [1[6[8][1][1]]]                                             
