12

  C           1.487376            -0.428665             4.266690            0             0.099454    [6[8[1]][1][1][1]]                                          
  O           2.630056            -0.194025             5.057445            0            -0.597823    [8[6[1][1][1]][1]]                                          
  H           2.762876            -0.876611             5.745413            0             0.402573    [1[8[6]]]                                                   
  H           1.308714             0.285588             3.519412            0             0.031932    [1[6[8][1][1]]]                                             
  H           1.633911            -1.323911             3.744331            0             0.031932    [1[6[8][1][1]]]                                             
  H           0.553844            -0.624710             4.835763            0             0.031932    [1[6[8][1][1]]]                                             
  C           5.356239             0.575091             7.861730            1             0.099454    [6[8[1]][1][1][1]]                                          
  O           5.092971             1.322461             6.696982            1            -0.597823    [8[6[1][1][1]][1]]                                          
  H           4.968646             0.716571             5.949532            1             0.402573    [1[8[6]]]                                                   
  H           5.774221             1.189268             8.691426            1             0.031932    [1[6[8][1][1]]]                                             
  H           4.499093             0.072589             8.225889            1             0.031932    [1[6[8][1][1]]]                                             
  H           6.158912            -0.140826             7.547524            1             0.031932    [1[6[8][1][1]]]                                             
