12

  C           7.010154            -0.039045            -9.433605            0             0.099454    [6[8[1]][1][1][1]]                                          
  O           8.270154             0.587972            -9.839625            0            -0.597823    [8[6[1][1][1]][1]]                                          
  H           8.487820             0.297724            -10.722834           0             0.402573    [1[8[6]]]                                                   
  H           6.245528             0.058010            -10.219982           0             0.031932    [1[6[8][1][1]]]                                             
  H           7.161661            -1.110750            -9.489318            0             0.031932    [1[6[8][1][1]]]                                             
  H           6.696794             0.214839            -8.443639            0             0.031932    [1[6[8][1][1]]]                                             
  C           11.474556            2.102910            -9.297509            1             0.099454    [6[8[1]][1][1][1]]                                          
  O           10.307835            2.200152            -8.489772            1            -0.597823    [8[6[1][1][1]][1]]                                          
  H           9.766941             1.402733            -8.572671            1             0.402573    [1[8[6]]]                                                   
  H           11.357470            1.455794            -10.216754           1             0.031932    [1[6[8][1][1]]]                                             
  H           11.682326            3.060955            -9.649247            1             0.031932    [1[6[8][1][1]]]                                             
  H           12.259209            1.769761            -8.610688            1             0.031932    [1[6[8][1][1]]]                                             
