12

  C           3.523408            -5.923778             2.070169            0             0.099454    [6[8[1]][1][1][1]]                                          
  O           3.834441            -4.576411             1.836301            0            -0.597823    [8[6[1][1][1]][1]]                                          
  H           4.763971            -4.562166             1.509061            0             0.402573    [1[8[6]]]                                                   
  H           2.729272            -5.991882             2.856450            0             0.031932    [1[6[8][1][1]]]                                             
  H           3.330591            -6.484672             1.252621            0             0.031932    [1[6[8][1][1]]]                                             
  H           4.446997            -6.457884             2.510366            0             0.031932    [1[6[8][1][1]]]                                             
  C           2.151310            -9.375479             1.494125            1             0.099454    [6[8[1]][1][1][1]]                                          
  O           1.398269            -9.213215             2.665177            1            -0.597823    [8[6[1][1][1]][1]]                                          
  H           0.489051            -9.614509             2.487930            1             0.402573    [1[8[6]]]                                                   
  H           3.081860            -8.821404             1.550915            1             0.031932    [1[6[8][1][1]]]                                             
  H           2.262270            -10.438042            1.210438            1             0.031932    [1[6[8][1][1]]]                                             
  H           1.555600            -8.862164             0.704413            1             0.031932    [1[6[8][1][1]]]                                             
