12

  C           7.022081            -8.326697             9.853911            0             0.099454    [6[8[1]][1][1][1]]                                          
  O           7.322670            -8.141552             11.271273           0            -0.597823    [8[6[1][1][1]][1]]                                          
  H           6.715127            -8.811474             11.650271           0             0.402573    [1[8[6]]]                                                   
  H           7.204798            -7.429468             9.312744            0             0.031932    [1[6[8][1][1]]]                                             
  H           7.707695            -9.087207             9.380179            0             0.031932    [1[6[8][1][1]]]                                             
  H           5.996552            -8.662078             9.599881            0             0.031932    [1[6[8][1][1]]]                                             
  C           7.696313            -10.211434            5.007463            1             0.099454    [6[8[1]][1][1][1]]                                          
  O           7.958218            -9.042702             5.736758            1            -0.597823    [8[6[1][1][1]][1]]                                          
  H           8.873742            -9.166333             6.057190            1             0.402573    [1[8[6]]]                                                   
  H           8.414789            -10.235438            4.185334            1             0.031932    [1[6[8][1][1]]]                                             
  H           7.970635            -11.061335            5.693218            1             0.031932    [1[6[8][1][1]]]                                             
  H           6.696710            -10.332449            4.645116            1             0.031932    [1[6[8][1][1]]]                                             
