12

  C          -0.177212            -3.464075            -5.008626            0             0.099454    [6[8[1]][1][1][1]]                                          
  O           0.599243            -4.170282            -5.964657            0            -0.597823    [8[6[1][1][1]][1]]                                          
  H           0.221244            -3.985069            -6.835843            0             0.402573    [1[8[6]]]                                                   
  H          -0.052295            -2.377234            -5.075351            0             0.031932    [1[6[8][1][1]]]                                             
  H          -1.279764            -3.683136            -5.182851            0             0.031932    [1[6[8][1][1]]]                                             
  H           0.041622            -3.838165            -4.030560            0             0.031932    [1[6[8][1][1]]]                                             
  C           2.145759            -7.640377            -5.295091            1             0.099454    [6[8[1]][1][1][1]]                                          
  O           1.602418            -6.643994            -4.406657            1            -0.597823    [8[6[1][1][1]][1]]                                          
  H           1.492877            -5.865634            -4.983985            1             0.402573    [1[8[6]]]                                                   
  H           2.613263            -8.329677            -4.566801            1             0.031932    [1[6[8][1][1]]]                                             
  H           1.370464            -8.215374            -5.818654            1             0.031932    [1[6[8][1][1]]]                                             
  H           2.981365            -7.362654            -5.935000            1             0.031932    [1[6[8][1][1]]]                                             
