12

  C           7.004929            -6.565444            -6.108691            0             0.099454    [6[8[1]][1][1][1]]                                          
  O           7.311226            -7.663960            -6.960760            0            -0.597823    [8[6[1][1][1]][1]]                                          
  H           6.495099            -8.068097            -7.257927            0             0.402573    [1[8[6]]]                                                   
  H           6.292944            -6.947194            -5.276311            0             0.031932    [1[6[8][1][1]]]                                             
  H           7.848356            -6.265472            -5.567084            0             0.031932    [1[6[8][1][1]]]                                             
  H           6.616340            -5.781074            -6.738117            0             0.031932    [1[6[8][1][1]]]                                             
  C           2.434177            -5.195059            -8.076676            1             0.099454    [6[8[1]][1][1][1]]                                          
  O           3.688224            -5.636364            -8.621875            1            -0.597823    [8[6[1][1][1]][1]]                                          
  H           3.862159            -6.538386            -8.220550            1             0.402573    [1[8[6]]]                                                   
  H           2.321819            -5.141944            -7.007522            1             0.031932    [1[6[8][1][1]]]                                             
  H           2.162235            -4.174228            -8.419748            1             0.031932    [1[6[8][1][1]]]                                             
  H           1.607918            -5.820516            -8.429680            1             0.031932    [1[6[8][1][1]]]                                             
