12

  C           6.579677            -4.656054             2.098122            0             0.099454    [6[8[1]][1][1][1]]                                          
  O           6.418017            -5.253259             3.379541            0            -0.597823    [8[6[1][1][1]][1]]                                          
  H           5.507121            -5.599913             3.333520            0             0.402573    [1[8[6]]]                                                   
  H           5.924402            -3.782596             1.864666            0             0.031932    [1[6[8][1][1]]]                                             
  H           7.523478            -4.087973             1.999012            0             0.031932    [1[6[8][1][1]]]                                             
  H           6.439044            -5.427651             1.315982            0             0.031932    [1[6[8][1][1]]]                                             
  C           5.358170            -4.553323             8.289341            1             0.099454    [6[8[1]][1][1][1]]                                          
  O           4.758662            -5.702051             7.788265            1            -0.597823    [8[6[1][1][1]][1]]                                          
  H           5.369109            -6.434928             7.839393            1             0.402573    [1[8[6]]]                                                   
  H           4.957496            -3.566630             7.869189            1             0.031932    [1[6[8][1][1]]]                                             
  H           5.109407            -4.431742             9.340299            1             0.031932    [1[6[8][1][1]]]                                             
  H           6.408784            -4.531158             8.178149            1             0.031932    [1[6[8][1][1]]]                                             
