12

  C          -3.318311            -0.619609            -4.975786            0             0.099454    [6[8[1]][1][1][1]]                                          
  O          -2.848868            -0.188945            -3.711665            0            -0.597823    [8[6[1][1][1]][1]]                                          
  H          -2.709265             0.711760            -3.772373            0             0.402573    [1[8[6]]]                                                   
  H          -2.662649            -0.195860            -5.703031            0             0.031932    [1[6[8][1][1]]]                                             
  H          -3.228268            -1.702189            -5.124246            0             0.031932    [1[6[8][1][1]]]                                             
  H          -4.392851            -0.308560            -5.145854            0             0.031932    [1[6[8][1][1]]]                                             
  C          -3.023013            -3.629306            -2.563117            1             0.099454    [6[8[1]][1][1][1]]                                          
  O          -2.579390            -2.375114            -1.974566            1            -0.597823    [8[6[1][1][1]][1]]                                          
  H          -2.783467            -1.640467            -2.546963            1             0.402573    [1[8[6]]]                                                   
  H          -2.217217            -4.132309            -3.100872            1             0.031932    [1[6[8][1][1]]]                                             
  H          -3.460692            -4.337143            -1.858071            1             0.031932    [1[6[8][1][1]]]                                             
  H          -3.910047            -3.564153            -3.228729            1             0.031932    [1[6[8][1][1]]]                                             
