12

  C           0.325050             3.682876             4.670970            0             0.099454    [6[8[1]][1][1][1]]                                          
  O          -0.846528             4.166738             4.035653            0            -0.597823    [8[6[1][1][1]][1]]                                          
  H          -1.548622             4.059657             4.702336            0             0.402573    [1[8[6]]]                                                   
  H           0.917244             3.089913             4.008710            0             0.031932    [1[6[8][1][1]]]                                             
  H           1.078371             4.362851             4.962118            0             0.031932    [1[6[8][1][1]]]                                             
  H           0.047949             3.124406             5.575140            0             0.031932    [1[6[8][1][1]]]                                             
  C          -0.719550            -0.314772             0.157178            1             0.099454    [6[8[1]][1][1][1]]                                          
  O          -1.584965             0.433955             1.002050            1            -0.597823    [8[6[1][1][1]][1]]                                          
  H          -2.224186             0.908863             0.534995            1             0.402573    [1[8[6]]]                                                   
  H          -0.599613             0.064661            -0.823681            1             0.031932    [1[6[8][1][1]]]                                             
  H           0.291541            -0.318473             0.630816            1             0.031932    [1[6[8][1][1]]]                                             
  H          -1.079026            -1.378477             0.075071            1             0.031932    [1[6[8][1][1]]]                                             
