12

  C          -7.546642             5.310844            -2.485952            0             0.099454    [6[8[1]][1][1][1]]                                          
  O          -6.537382             4.702897            -1.704250            0            -0.597823    [8[6[1][1][1]][1]]                                          
  H          -6.634103             3.799627            -2.072274            0             0.402573    [1[8[6]]]                                                   
  H          -7.343214             5.297082            -3.570693            0             0.031932    [1[6[8][1][1]]]                                             
  H          -8.497672             4.889586            -2.433377            0             0.031932    [1[6[8][1][1]]]                                             
  H          -7.670592             6.410111            -2.234567            0             0.031932    [1[6[8][1][1]]]                                             
  C          -6.007525             0.719577            -5.165617            1             0.099454    [6[8[1]][1][1][1]]                                          
  O          -5.288869            -0.366736            -4.688007            1            -0.597823    [8[6[1][1][1]][1]]                                          
  H          -4.697199            -0.017143            -3.986551            1             0.402573    [1[8[6]]]                                                   
  H          -6.138458             1.446479            -4.407302            1             0.031932    [1[6[8][1][1]]]                                             
  H          -5.491388             1.206713            -5.993814            1             0.031932    [1[6[8][1][1]]]                                             
  H          -7.019451             0.520882            -5.454482            1             0.031932    [1[6[8][1][1]]]                                             
