12

  C           1.269871             9.879331            -0.599120            0             0.099454    [6[8[1]][1][1][1]]                                          
  O           0.550984             10.401373           -1.687121            0            -0.597823    [8[6[1][1][1]][1]]                                          
  H           1.012664             10.160186           -2.532134            0             0.402573    [1[8[6]]]                                                   
  H           2.167690             10.427401           -0.377676            0             0.031932    [1[6[8][1][1]]]                                             
  H           0.681937             9.939211             0.333634            0             0.031932    [1[6[8][1][1]]]                                             
  H           1.542014             8.821029            -0.738487            0             0.031932    [1[6[8][1][1]]]                                             
  C          -0.106739             9.521801            -5.307521            1             0.099454    [6[8[1]][1][1][1]]                                          
  O           0.614074             9.137865            -4.140551            1            -0.597823    [8[6[1][1][1]][1]]                                          
  H           1.175984             8.393284            -4.348319            1             0.402573    [1[8[6]]]                                                   
  H          -0.119439             8.705154            -6.072556            1             0.031932    [1[6[8][1][1]]]                                             
  H          -1.199206             9.672196            -5.112654            1             0.031932    [1[6[8][1][1]]]                                             
  H           0.292130             10.479332           -5.655162            1             0.031932    [1[6[8][1][1]]]                                             
