12

  C          -3.641882            -6.013494            -3.653541            0             0.099454    [6[8[1]][1][1][1]]                                          
  O          -3.109496            -5.033797            -2.834084            0            -0.597823    [8[6[1][1][1]][1]]                                          
  H          -2.177298            -4.956198            -2.865698            0             0.402573    [1[8[6]]]                                                   
  H          -3.149717            -6.980031            -3.450855            0             0.031932    [1[6[8][1][1]]]                                             
  H          -4.734627            -6.165777            -3.567122            0             0.031932    [1[6[8][1][1]]]                                             
  H          -3.537758            -5.813317            -4.687027            0             0.031932    [1[6[8][1][1]]]                                             
  C          -1.458023            -9.361452            -1.350256            1             0.099454    [6[8[1]][1][1][1]]                                          
  O          -2.491305            -10.012181           -2.059655            1            -0.597823    [8[6[1][1][1]][1]]                                          
  H          -2.108156            -10.847081           -2.527801            1             0.402573    [1[8[6]]]                                                   
  H          -1.862260            -8.668399            -0.598521            1             0.031932    [1[6[8][1][1]]]                                             
  H          -0.890676            -10.071587           -0.780628            1             0.031932    [1[6[8][1][1]]]                                             
  H          -0.726148            -8.954418            -2.036233            1             0.031932    [1[6[8][1][1]]]                                             
