12

  C           3.522016             3.639850            -5.642399            0             0.099454    [6[8[1]][1][1][1]]                                          
  O           2.143090             3.550942            -6.096599            0            -0.597823    [8[6[1][1][1]][1]]                                          
  H           1.805661             2.673086            -5.987223            0             0.402573    [1[8[6]]]                                                   
  H           4.273496             3.105135            -6.260099            0             0.031932    [1[6[8][1][1]]]                                             
  H           3.856484             4.635359            -5.653615            0             0.031932    [1[6[8][1][1]]]                                             
  H           3.616482             3.242243            -4.599402            0             0.031932    [1[6[8][1][1]]]                                             
  C           0.830158             6.375515            -3.351954            1             0.099454    [6[8[1]][1][1][1]]                                          
  O           0.940551             5.032398            -3.766488            1            -0.597823    [8[6[1][1][1]][1]]                                          
  H           0.052664             4.669566            -3.840227            1             0.402573    [1[8[6]]]                                                   
  H           1.780243             6.766716            -3.040105            1             0.031932    [1[6[8][1][1]]]                                             
  H           0.538714             6.865251            -4.300395            1             0.031932    [1[6[8][1][1]]]                                             
  H          -0.102038             6.622866            -2.764643            1             0.031932    [1[6[8][1][1]]]                                             
