12

  C          -2.480424             1.308828             7.904205            0             0.099454    [6[8[1]][1][1][1]]                                          
  O          -1.509948             0.802413             7.031501            0            -0.597823    [8[6[1][1][1]][1]]                                          
  H          -1.975338             0.214268             6.452613            0             0.402573    [1[8[6]]]                                                   
  H          -2.494032             0.674964             8.764390            0             0.031932    [1[6[8][1][1]]]                                             
  H          -2.228813             2.301698             8.272983            0             0.031932    [1[6[8][1][1]]]                                             
  H          -3.456427             1.299778             7.479879            0             0.031932    [1[6[8][1][1]]]                                             
  C          -3.727973            -1.649704             6.637132            1             0.099454    [6[8[1]][1][1][1]]                                          
  O          -2.891218            -1.145543             5.615746            1            -0.597823    [8[6[1][1][1]][1]]                                          
  H          -2.828030            -1.761109             4.912795            1             0.402573    [1[8[6]]]                                                   
  H          -3.366641            -2.494963             7.158511            1             0.031932    [1[6[8][1][1]]]                                             
  H          -3.949800            -0.870699             7.426637            1             0.031932    [1[6[8][1][1]]]                                             
  H          -4.697493            -1.951473             6.241706            1             0.031932    [1[6[8][1][1]]]                                             
