12

  C           4.287323             3.811473            -10.095497           0             0.099454    [6[8[1]][1][1][1]]                                          
  O           5.437001             3.561698            -10.899745           0            -0.597823    [8[6[1][1][1]][1]]                                          
  H           5.610883             2.637790            -10.816381           0             0.402573    [1[8[6]]]                                                   
  H           3.601199             4.500166            -10.683801           0             0.031932    [1[6[8][1][1]]]                                             
  H           3.740410             2.909689            -9.881101            0             0.031932    [1[6[8][1][1]]]                                             
  H           4.471084             4.301608            -9.117160            0             0.031932    [1[6[8][1][1]]]                                             
  C           9.249348             3.887133            -10.934011           1             0.099454    [6[8[1]][1][1][1]]                                          
  O           9.697563             3.561478            -9.597869            1            -0.597823    [8[6[1][1][1]][1]]                                          
  H           10.339253            2.835095            -9.668018            1             0.402573    [1[8[6]]]                                                   
  H           8.978383             5.007794            -10.990049           1             0.031932    [1[6[8][1][1]]]                                             
  H           10.071252            3.732758            -11.620679           1             0.031932    [1[6[8][1][1]]]                                             
  H           8.289812             3.395133            -11.245010           1             0.031932    [1[6[8][1][1]]]                                             
