12

  C           8.290622             5.239301            -9.015405            0             0.099454    [6[8[1]][1][1][1]]                                          
  O           7.716649             6.173702            -8.101895            0            -0.597823    [8[6[1][1][1]][1]]                                          
  H           8.239089             5.969744            -7.352667            0             0.402573    [1[8[6]]]                                                   
  H           7.967459             4.219938            -8.846703            0             0.031932    [1[6[8][1][1]]]                                             
  H           7.958367             5.425387            -10.042128           0             0.031932    [1[6[8][1][1]]]                                             
  H           9.361778             5.266100            -8.805668            0             0.031932    [1[6[8][1][1]]]                                             
  C           10.678996            8.771194            -7.516484            1             0.099454    [6[8[1]][1][1][1]]                                          
  O           10.671975            9.516892            -6.346500            1            -0.597823    [8[6[1][1][1]][1]]                                          
  H           10.764590            8.847367            -5.616443            1             0.402573    [1[8[6]]]                                                   
  H           10.695222            7.656437            -7.292155            1             0.031932    [1[6[8][1][1]]]                                             
  H           9.869501             8.951080            -8.154115            1             0.031932    [1[6[8][1][1]]]                                             
  H           11.614463            9.001513            -8.114070            1             0.031932    [1[6[8][1][1]]]                                             
