10

C -0.29422000           1.86419000          -0.05898000         
S  1.49910000           1.91442000           0.22632000         
H -0.69531000           2.89286000           0.04722000         
H -0.78793000           1.22258000           0.70033000         
H -0.51002000           1.52045000          -1.09211000         
S  1.73011000          -0.17621000          -0.12947000         
C  3.51642000          -0.13434000           0.19790000         
H  3.92080000          -1.15900000           0.06807000         
H  3.70967000           0.18007000           1.24469000         
H  4.02609000           0.52838000          -0.53227000         
