12

  C          -4.012360            -0.632223            -6.223825            0             0.099454    [6[8[1]][1][1][1]]                                          
  O          -2.965257            -0.703320            -7.190753            0            -0.597823    [8[6[1][1][1]][1]]                                          
  H          -2.852629             0.189757            -7.475184            0             0.402573    [1[8[6]]]                                                   
  H          -4.895015            -0.107006            -6.552738            0             0.031932    [1[6[8][1][1]]]                                             
  H          -4.281098            -1.627161            -5.907874            0             0.031932    [1[6[8][1][1]]]                                             
  H          -3.664603            -0.197199            -5.263075            0             0.031932    [1[6[8][1][1]]]                                             
  C           0.585517            -1.759218            -8.335983            1             0.099454    [6[8[1]][1][1][1]]                                          
  O           0.816853            -0.517907            -7.692946            1            -0.597823    [8[6[1][1][1]][1]]                                          
  H           0.045362            -0.186722            -7.257872            1             0.402573    [1[8[6]]]                                                   
  H          -0.363235            -1.712037            -8.836168            1             0.031932    [1[6[8][1][1]]]                                             
  H           1.427785            -1.858109            -9.006055            1             0.031932    [1[6[8][1][1]]]                                             
  H           0.591443            -2.551669            -7.587981            1             0.031932    [1[6[8][1][1]]]                                             
