12

  C          -9.607152             5.117939             10.317156           0             0.099454    [6[8[1]][1][1][1]]                                          
  O          -9.368994             5.737735             9.035976            0            -0.597823    [8[6[1][1][1]][1]]                                          
  H          -8.398916             5.941708             9.107230            0             0.402573    [1[8[6]]]                                                   
  H          -9.158430             4.141483             10.316364           0             0.031932    [1[6[8][1][1]]]                                             
  H          -9.168728             5.705296             11.156317           0             0.031932    [1[6[8][1][1]]]                                             
  H          -10.756930            5.109507             10.406257           0             0.031932    [1[6[8][1][1]]]                                             
  C          -6.288564             7.321391             9.342525            1             0.099454    [6[8[1]][1][1][1]]                                          
  O          -6.551368             6.072985             8.771686            1            -0.597823    [8[6[1][1][1]][1]]                                          
  H          -6.181356             6.100309             7.882743            1             0.402573    [1[8[6]]]                                                   
  H          -5.244810             7.621234             9.418924            1             0.031932    [1[6[8][1][1]]]                                             
  H          -6.769384             8.110163             8.728446            1             0.031932    [1[6[8][1][1]]]                                             
  H          -6.762811             7.352081             10.372824           1             0.031932    [1[6[8][1][1]]]                                             
