6

  C          -9.781341             2.891986            -4.890354            0             0.089063    [6[8[1]][1][1][1]]                                          
  O          -9.265412             4.202007            -4.639118            0            -0.604789    [8[6[1][1][1]][1]]                                          
  H          -8.978955             4.255495            -3.728800            0             0.406250    [1[8[6]]]                                                   
  H          -10.402662            2.435077            -4.051906            0             0.036492    [1[6[8][1][1]]]                                             
  H          -10.358496            2.902167            -5.822584            0             0.036492    [1[6[8][1][1]]]                                             
  H          -8.956540             2.210964            -4.977244            0             0.036492    [1[6[8][1][1]]]                                             
