12

  C          -3.366488             1.354718             8.299496            0             0.099454    [6[8[1]][1][1][1]]                                          
  O          -2.747762             2.580068             8.513952            0            -0.597823    [8[6[1][1][1]][1]]                                          
  H          -2.097212             2.607204             7.804503            0             0.402573    [1[8[6]]]                                                   
  H          -3.091532             0.606645             9.087924            0             0.031932    [1[6[8][1][1]]]                                             
  H          -4.464560             1.385830             8.357553            0             0.031932    [1[6[8][1][1]]]                                             
  H          -3.098089             0.935276             7.304372            0             0.031932    [1[6[8][1][1]]]                                             
  C          -6.372342            -1.014732             6.938762            1             0.099454    [6[8[1]][1][1][1]]                                          
  O          -5.634204            -1.266209             8.100461            1            -0.597823    [8[6[1][1][1]][1]]                                          
  H          -5.812488            -2.188515             8.332082            1             0.402573    [1[8[6]]]                                                   
  H          -7.397570            -0.775769             7.160779            1             0.031932    [1[6[8][1][1]]]                                             
  H          -5.957204            -0.257292             6.274746            1             0.031932    [1[6[8][1][1]]]                                             
  H          -6.374269            -1.879775             6.204587            1             0.031932    [1[6[8][1][1]]]                                             
