12

  C           6.927127            -4.964074            -3.543295            0             0.099454    [6[8[1]][1][1][1]]                                          
  O           7.098830            -4.110192            -4.645305            0            -0.597823    [8[6[1][1][1]][1]]                                          
  H           6.671527            -4.533860            -5.377378            0             0.402573    [1[8[6]]]                                                   
  H           7.355301            -5.940963            -3.781098            0             0.031932    [1[6[8][1][1]]]                                             
  H           7.411281            -4.637179            -2.614870            0             0.031932    [1[6[8][1][1]]]                                             
  H           5.821214            -5.071691            -3.295689            0             0.031932    [1[6[8][1][1]]]                                             
  C           4.456608            -5.758991            -6.873054            1             0.099454    [6[8[1]][1][1][1]]                                          
  O           5.760010            -5.413687            -6.980068            1            -0.597823    [8[6[1][1][1]][1]]                                          
  H           6.153159            -5.988479            -7.622950            1             0.402573    [1[8[6]]]                                                   
  H           3.953173            -5.299988            -7.743366            1             0.031932    [1[6[8][1][1]]]                                             
  H           4.340412            -6.843411            -6.864687            1             0.031932    [1[6[8][1][1]]]                                             
  H           4.166670            -5.363471            -5.862831            1             0.031932    [1[6[8][1][1]]]                                             
