12

  C          -0.073123            -1.446190            -8.216808            0             0.099454    [6[8[1]][1][1][1]]                                          
  O          -1.511276            -1.386033            -7.972228            0            -0.597823    [8[6[1][1][1]][1]]                                          
  H          -1.960776            -1.925502            -8.635251            0             0.402573    [1[8[6]]]                                                   
  H           0.244114            -2.511909            -8.329340            0             0.031932    [1[6[8][1][1]]]                                             
  H           0.238899            -0.965654            -9.158565            0             0.031932    [1[6[8][1][1]]]                                             
  H           0.527147            -0.841932            -7.501318            0             0.031932    [1[6[8][1][1]]]                                             
  C          -2.199423            -3.220114            -4.600146            1             0.099454    [6[8[1]][1][1][1]]                                          
  O          -2.828646            -2.675775            -5.718328            1            -0.597823    [8[6[1][1][1]][1]]                                          
  H          -2.224699            -2.440707            -6.411759            1             0.402573    [1[8[6]]]                                                   
  H          -2.777657            -4.032801            -4.099867            1             0.031932    [1[6[8][1][1]]]                                             
  H          -1.242190            -3.615599            -4.941980            1             0.031932    [1[6[8][1][1]]]                                             
  H          -1.968914            -2.377201            -3.845331            1             0.031932    [1[6[8][1][1]]]                                             
