12

  C           0.144095            -7.252960             6.891746            0             0.099454    [6[8[1]][1][1][1]]                                          
  O           0.342838            -6.072351             7.719867            0            -0.597823    [8[6[1][1][1]][1]]                                          
  H           0.144008            -6.243576             8.650731            0             0.402573    [1[8[6]]]                                                   
  H          -0.412885            -7.910515             7.511644            0             0.031932    [1[6[8][1][1]]]                                             
  H          -0.473165            -7.072138             6.063705            0             0.031932    [1[6[8][1][1]]]                                             
  H           1.048022            -7.622503             6.470122            0             0.031932    [1[6[8][1][1]]]                                             
  C           0.147487            -10.878635            5.552531            1             0.099454    [6[8[1]][1][1][1]]                                          
  O          -0.847567            -10.263458            6.365772            1            -0.597823    [8[6[1][1][1]][1]]                                          
  H          -1.074027            -9.403888             6.015301            1             0.402573    [1[8[6]]]                                                   
  H          -0.429552            -11.525158            4.836190            1             0.031932    [1[6[8][1][1]]]                                             
  H           0.745412            -10.186834            4.917920            1             0.031932    [1[6[8][1][1]]]                                             
  H           0.793972            -11.591896            6.171292            1             0.031932    [1[6[8][1][1]]]                                             
