12

  C           4.420336            -3.631376             1.742753            0             0.099454    [6[8[1]][1][1][1]]                                          
  O           3.162538            -4.207617             1.389367            0            -0.597823    [8[6[1][1][1]][1]]                                          
  H           2.908502            -4.657569             2.203867            0             0.402573    [1[8[6]]]                                                   
  H           4.810058            -2.966194             0.971924            0             0.031932    [1[6[8][1][1]]]                                             
  H           4.419981            -3.156620             2.638260            0             0.031932    [1[6[8][1][1]]]                                             
  H           5.257324            -4.385752             1.882703            0             0.031932    [1[6[8][1][1]]]                                             
  C           7.645717            -4.783339            -1.647874            1             0.099454    [6[8[1]][1][1][1]]                                          
  O           7.887351            -5.714347            -2.654001            1            -0.597823    [8[6[1][1][1]][1]]                                          
  H           7.890592            -6.610636            -2.236015            1             0.402573    [1[8[6]]]                                                   
  H           6.697391            -5.034375            -1.097132            1             0.031932    [1[6[8][1][1]]]                                             
  H           8.505209            -4.668471            -0.925371            1             0.031932    [1[6[8][1][1]]]                                             
  H           7.544905            -3.785441            -2.124647            1             0.031932    [1[6[8][1][1]]]                                             
