12

  C          -3.485730            -1.394707            -9.730617            0             0.099454    [6[8[1]][1][1][1]]                                          
  O          -2.209008            -1.200329            -10.263792           0            -0.597823    [8[6[1][1][1]][1]]                                          
  H          -1.614533            -1.875366            -9.926658            0             0.402573    [1[8[6]]]                                                   
  H          -4.240539            -0.844386            -10.235814           0             0.031932    [1[6[8][1][1]]]                                             
  H          -3.804167            -2.419185            -9.794614            0             0.031932    [1[6[8][1][1]]]                                             
  H          -3.535408            -1.094552            -8.687688            0             0.031932    [1[6[8][1][1]]]                                             
  C          -4.432749            -0.665005            -4.183704            1             0.099454    [6[8[1]][1][1][1]]                                          
  O          -5.511980            -0.222480            -3.434438            1            -0.597823    [8[6[1][1][1]][1]]                                          
  H          -5.248983             0.389718            -2.720610            1             0.402573    [1[8[6]]]                                                   
  H          -4.629903            -0.997595            -5.147036            1             0.031932    [1[6[8][1][1]]]                                             
  H          -3.745433             0.176684            -4.392793            1             0.031932    [1[6[8][1][1]]]                                             
  H          -3.865923            -1.420292            -3.627078            1             0.031932    [1[6[8][1][1]]]                                             
