12

  C           7.365069            -7.681559             8.766105            0             0.099454    [6[8[1]][1][1][1]]                                          
  O           7.672023            -6.390432             9.124255            0            -0.597823    [8[6[1][1][1]][1]]                                          
  H           7.661325            -6.344541             10.049661           0             0.402573    [1[8[6]]]                                                   
  H           8.065978            -8.404759             9.169280            0             0.031932    [1[6[8][1][1]]]                                             
  H           6.408734            -8.016274             9.069796            0             0.031932    [1[6[8][1][1]]]                                             
  H           7.248683            -7.726035             7.660480            0             0.031932    [1[6[8][1][1]]]                                             
  C           11.444901           -6.669576             8.433527            1             0.099454    [6[8[1]][1][1][1]]                                          
  O           10.383963           -5.787107             8.745090            1            -0.597823    [8[6[1][1][1]][1]]                                          
  H           9.547265            -6.276719             8.536339            1             0.402573    [1[8[6]]]                                                   
  H           11.721595           -7.245196             9.365166            1             0.031932    [1[6[8][1][1]]]                                             
  H           11.150588           -7.497450             7.707435            1             0.031932    [1[6[8][1][1]]]                                             
  H           12.298860           -6.100439             8.008087            1             0.031932    [1[6[8][1][1]]]                                             
