12

  C          -4.262804            -3.298811             4.931557            0             0.099454    [6[8[1]][1][1][1]]                                          
  O          -3.864564            -2.942529             6.210114            0            -0.597823    [8[6[1][1][1]][1]]                                          
  H          -2.899731            -2.834253             6.123950            0             0.402573    [1[8[6]]]                                                   
  H          -4.286093            -4.428996             4.908977            0             0.031932    [1[6[8][1][1]]]                                             
  H          -5.227939            -2.841040             4.620827            0             0.031932    [1[6[8][1][1]]]                                             
  H          -3.491225            -3.035285             4.130311            0             0.031932    [1[6[8][1][1]]]                                             
  C          -6.242248            -0.142471             2.374967            1             0.099454    [6[8[1]][1][1][1]]                                          
  O          -6.795535             0.871142             1.528577            1            -0.597823    [8[6[1][1][1]][1]]                                          
  H          -6.086667             1.558375             1.634918            1             0.402573    [1[8[6]]]                                                   
  H          -7.005123            -0.500635             3.005440            1             0.031932    [1[6[8][1][1]]]                                             
  H          -5.854555            -0.967482             1.802231            1             0.031932    [1[6[8][1][1]]]                                             
  H          -5.386707             0.238985             2.896178            1             0.031932    [1[6[8][1][1]]]                                             
