12

  C           10.151555            8.697992            -2.113844            0             0.099454    [6[8[1]][1][1][1]]                                          
  O           8.907114             8.041381            -1.854696            0            -0.597823    [8[6[1][1][1]][1]]                                          
  H           8.176294             8.540252            -2.215552            0             0.402573    [1[8[6]]]                                                   
  H           10.937525            7.939530            -1.949895            0             0.031932    [1[6[8][1][1]]]                                             
  H           10.135819            9.106653            -3.162596            0             0.031932    [1[6[8][1][1]]]                                             
  H           10.323929            9.538655            -1.477755            0             0.031932    [1[6[8][1][1]]]                                             
  C           5.516910             4.798344             0.486500            1             0.099454    [6[8[1]][1][1][1]]                                          
  O           5.933246             5.897615             1.108298            1            -0.597823    [8[6[1][1][1]][1]]                                          
  H           6.394821             6.479765             0.481301            1             0.402573    [1[8[6]]]                                                   
  H           4.789262             4.296935             1.139114            1             0.031932    [1[6[8][1][1]]]                                             
  H           4.936789             4.924250            -0.411263            1             0.031932    [1[6[8][1][1]]]                                             
  H           6.246772             4.066543             0.165103            1             0.031932    [1[6[8][1][1]]]                                             
