12

  C           8.331592            -10.375895            7.139008            0             0.099454    [6[8[1]][1][1][1]]                                          
  O           9.315102            -9.774001             7.995911            0            -0.597823    [8[6[1][1][1]][1]]                                          
  H           9.211891            -10.272395            8.836633            0             0.402573    [1[8[6]]]                                                   
  H           8.098170            -11.440791            7.513701            0             0.031932    [1[6[8][1][1]]]                                             
  H           7.334259            -9.862406             7.103293            0             0.031932    [1[6[8][1][1]]]                                             
  H           8.752768            -10.471660            6.149352            0             0.031932    [1[6[8][1][1]]]                                             
  C           10.292531           -9.975359             11.210057           1             0.099454    [6[8[1]][1][1][1]]                                          
  O           9.652182            -11.079391            10.534619           1            -0.597823    [8[6[1][1][1]][1]]                                          
  H           9.772750            -11.838116            11.103862           1             0.402573    [1[8[6]]]                                                   
  H           10.268027           -9.067556             10.587058           1             0.031932    [1[6[8][1][1]]]                                             
  H           9.831534            -9.781558             12.131497           1             0.031932    [1[6[8][1][1]]]                                             
  H           11.306644           -10.123513            11.395245           1             0.031932    [1[6[8][1][1]]]                                             
