12

  C           0.088638            -8.580864             3.565834            0             0.099454    [6[8[1]][1][1][1]]                                          
  O          -0.416962            -9.781214             4.042133            0            -0.597823    [8[6[1][1][1]][1]]                                          
  H           0.283125            -10.405969            4.167854            0             0.402573    [1[8[6]]]                                                   
  H           0.607699            -8.089374             4.431848            0             0.031932    [1[6[8][1][1]]]                                             
  H           0.832034            -8.764775             2.845523            0             0.031932    [1[6[8][1][1]]]                                             
  H          -0.634273            -7.836461             3.171717            0             0.031932    [1[6[8][1][1]]]                                             
  C          -3.362429            -10.624010            2.447087            1             0.099454    [6[8[1]][1][1][1]]                                          
  O          -2.114326            -10.397029            1.861967            1            -0.597823    [8[6[1][1][1]][1]]                                          
  H          -1.490704            -10.338248            2.606622            1             0.402573    [1[8[6]]]                                                   
  H          -3.628185            -9.688720             2.997938            1             0.031932    [1[6[8][1][1]]]                                             
  H          -4.220479            -10.901537            1.786681            1             0.031932    [1[6[8][1][1]]]                                             
  H          -3.388705            -11.407834            3.232924            1             0.031932    [1[6[8][1][1]]]                                             
