12

  C          -6.181417             4.486553             9.135316            0             0.099454    [6[8[1]][1][1][1]]                                          
  O          -6.207112             3.427450             8.243800            0            -0.597823    [8[6[1][1][1]][1]]                                          
  H          -6.841590             3.548929             7.511015            0             0.402573    [1[8[6]]]                                                   
  H          -5.713710             5.329035             8.707369            0             0.031932    [1[6[8][1][1]]]                                             
  H          -7.179472             4.846988             9.405488            0             0.031932    [1[6[8][1][1]]]                                             
  H          -5.829679             4.273217             10.121663           0             0.031932    [1[6[8][1][1]]]                                             
  C          -8.337797             2.416175             5.163144            1             0.099454    [6[8[1]][1][1][1]]                                          
  O          -7.836893             3.630064             5.649020            1            -0.597823    [8[6[1][1][1]][1]]                                          
  H          -8.642181             4.245374             5.763971            1             0.402573    [1[8[6]]]                                                   
  H          -7.568641             1.935078             4.537271            1             0.031932    [1[6[8][1][1]]]                                             
  H          -8.594351             1.681504             5.898508            1             0.031932    [1[6[8][1][1]]]                                             
  H          -9.204598             2.572450             4.608800            1             0.031932    [1[6[8][1][1]]]                                             
