12

  C          -8.943252            -7.348248             2.064146            0             0.099454    [6[8[1]][1][1][1]]                                          
  O          -8.854877            -8.616783             1.511822            0            -0.597823    [8[6[1][1][1]][1]]                                          
  H          -9.785357            -8.938947             1.557192            0             0.402573    [1[8[6]]]                                                   
  H          -7.983475            -6.876313             1.956709            0             0.031932    [1[6[8][1][1]]]                                             
  H          -9.635888            -6.670991             1.500144            0             0.031932    [1[6[8][1][1]]]                                             
  H          -9.236388            -7.364689             3.074729            0             0.031932    [1[6[8][1][1]]]                                             
  C          -6.266477            -4.168455             2.455603            1             0.099454    [6[8[1]][1][1][1]]                                          
  O          -7.175860            -4.854637             3.321808            1            -0.597823    [8[6[1][1][1]][1]]                                          
  H          -7.764477            -4.120895             3.614753            1             0.402573    [1[8[6]]]                                                   
  H          -5.463502            -3.663733             3.000096            1             0.031932    [1[6[8][1][1]]]                                             
  H          -5.628157            -4.916968             1.894217            1             0.031932    [1[6[8][1][1]]]                                             
  H          -6.708523            -3.465401             1.673452            1             0.031932    [1[6[8][1][1]]]                                             
