12

  C          -9.148478            -7.699592             3.750944            0             0.099454    [6[8[1]][1][1][1]]                                          
  O          -8.768307            -7.188692             2.457517            0            -0.597823    [8[6[1][1][1]][1]]                                          
  H          -9.539388            -7.228703             1.924182            0             0.402573    [1[8[6]]]                                                   
  H          -9.498770            -8.728555             3.697572            0             0.031932    [1[6[8][1][1]]]                                             
  H          -8.469807            -7.543474             4.609705            0             0.031932    [1[6[8][1][1]]]                                             
  H          -10.003615           -7.123015             4.042330            0             0.031932    [1[6[8][1][1]]]                                             
  C          -8.070406            -4.503512             0.294764            1             0.099454    [6[8[1]][1][1][1]]                                          
  O          -8.673569            -5.587107            -0.386314            1            -0.597823    [8[6[1][1][1]][1]]                                          
  H          -9.563237            -5.630320            -0.002070            1             0.402573    [1[8[6]]]                                                   
  H          -7.873048            -4.860077             1.333254            1             0.031932    [1[6[8][1][1]]]                                             
  H          -7.174208            -4.111271            -0.251197            1             0.031932    [1[6[8][1][1]]]                                             
  H          -8.697759            -3.599668             0.320643            1             0.031932    [1[6[8][1][1]]]                                             
