6

  C           1.451918             3.739292            -7.672484            0             0.089063    [6[8[1]][1][1][1]]                                          
  O           0.403176             3.445402            -6.836902            0            -0.604789    [8[6[1][1][1]][1]]                                          
  H          -0.377181             3.427477            -7.369579            0             0.406250    [1[8[6]]]                                                   
  H           1.298772             4.744631            -8.107598            0             0.036492    [1[6[8][1][1]]]                                             
  H           2.426047             3.884116            -7.239538            0             0.036492    [1[6[8][1][1]]]                                             
  H           1.565785             3.027730            -8.555647            0             0.036492    [1[6[8][1][1]]]                                             
