12

  C           9.292696            -8.407143            -10.959282           0             0.099454    [6[8[1]][1][1][1]]                                          
  O           9.750118            -9.719901            -11.130576           0            -0.597823    [8[6[1][1][1]][1]]                                          
  H           10.356786           -9.725511            -11.852830           0             0.402573    [1[8[6]]]                                                   
  H           8.471294            -8.255547            -11.710006           0             0.031932    [1[6[8][1][1]]]                                             
  H           8.921736            -8.207136            -9.946187            0             0.031932    [1[6[8][1][1]]]                                             
  H           10.158140           -7.646811            -11.149071           0             0.031932    [1[6[8][1][1]]]                                             
  C           10.841088           -7.127061            -6.891285            1             0.099454    [6[8[1]][1][1][1]]                                          
  O           10.495546           -7.092162            -5.484353            1            -0.597823    [8[6[1][1][1]][1]]                                          
  H           9.956987            -6.291068            -5.245316            1             0.402573    [1[8[6]]]                                                   
  H           9.927392            -6.872766            -7.502368            1             0.031932    [1[6[8][1][1]]]                                             
  H           11.640231           -6.359361            -7.120319            1             0.031932    [1[6[8][1][1]]]                                             
  H           11.277844           -8.122326            -7.267426            1             0.031932    [1[6[8][1][1]]]                                             
