12

  C          -0.339149            -4.423199            -5.326055            0             0.099454    [6[8[1]][1][1][1]]                                          
  O          -0.038769            -3.807960            -6.553983            0            -0.597823    [8[6[1][1][1]][1]]                                          
  H           0.856931            -4.029601            -6.766577            0             0.402573    [1[8[6]]]                                                   
  H          -1.183695            -3.938080            -4.910688            0             0.031932    [1[6[8][1][1]]]                                             
  H          -0.641640            -5.450036            -5.588658            0             0.031932    [1[6[8][1][1]]]                                             
  H           0.493558            -4.491203            -4.588605            0             0.031932    [1[6[8][1][1]]]                                             
  C          -2.536524            -5.092368            -7.937010            1             0.099454    [6[8[1]][1][1][1]]                                          
  O          -2.490493            -3.661079            -7.850409            1            -0.597823    [8[6[1][1][1]][1]]                                          
  H          -1.765617            -3.529473            -7.212944            1             0.402573    [1[8[6]]]                                                   
  H          -3.324037            -5.370341            -8.616925            1             0.031932    [1[6[8][1][1]]]                                             
  H          -1.589571            -5.589738            -8.198997            1             0.031932    [1[6[8][1][1]]]                                             
  H          -2.937698            -5.591596            -7.043664            1             0.031932    [1[6[8][1][1]]]                                             
