12

  C          -3.085407             1.212228            -6.857028            0             0.099454    [6[8[1]][1][1][1]]                                          
  O          -4.014511             0.679533            -7.754818            0            -0.597823    [8[6[1][1][1]][1]]                                          
  H          -3.617017            -0.153410            -8.081807            0             0.402573    [1[8[6]]]                                                   
  H          -3.475457             2.195119            -6.416982            0             0.031932    [1[6[8][1][1]]]                                             
  H          -2.699295             0.539996            -6.108891            0             0.031932    [1[6[8][1][1]]]                                             
  H          -2.225274             1.472159            -7.430988            0             0.031932    [1[6[8][1][1]]]                                             
  C          -3.614518             2.377771            -3.383967            1             0.099454    [6[8[1]][1][1][1]]                                          
  O          -2.329150             2.667694            -3.971855            1            -0.597823    [8[6[1][1][1]][1]]                                          
  H          -1.580685             2.454712            -3.361758            1             0.402573    [1[8[6]]]                                                   
  H          -4.317410             3.034180            -3.857457            1             0.031932    [1[6[8][1][1]]]                                             
  H          -3.902533             1.347979            -3.342968            1             0.031932    [1[6[8][1][1]]]                                             
  H          -3.658207             2.674005            -2.304684            1             0.031932    [1[6[8][1][1]]]                                             
