12

  C          -2.321207            -5.271564            -0.117392            0             0.099454    [6[8[1]][1][1][1]]                                          
  O          -1.699948            -4.236620            -0.812064            0            -0.597823    [8[6[1][1][1]][1]]                                          
  H          -1.067507            -3.804357            -0.260356            0             0.402573    [1[8[6]]]                                                   
  H          -3.067091            -5.682834            -0.736439            0             0.031932    [1[6[8][1][1]]]                                             
  H          -1.643910            -6.077927             0.202816            0             0.031932    [1[6[8][1][1]]]                                             
  H          -2.851049            -4.806668             0.717258            0             0.031932    [1[6[8][1][1]]]                                             
  C          -1.495863            -7.793966             2.578970            1             0.099454    [6[8[1]][1][1][1]]                                          
  O          -0.483908            -8.710435             2.830056            1            -0.597823    [8[6[1][1][1]][1]]                                          
  H          -0.539122            -8.859072             3.780533            1             0.402573    [1[8[6]]]                                                   
  H          -1.316843            -6.805620             3.074040            1             0.031932    [1[6[8][1][1]]]                                             
  H          -1.618548            -7.589966             1.567328            1             0.031932    [1[6[8][1][1]]]                                             
  H          -2.421022            -8.112278             2.983919            1             0.031932    [1[6[8][1][1]]]                                             
