12

  C          -4.761511             4.033597             0.644561            0             0.099454    [6[8[1]][1][1][1]]                                          
  O          -5.840978             3.433233             0.049642            0            -0.597823    [8[6[1][1][1]][1]]                                          
  H          -5.492849             2.523633             0.104784            0             0.402573    [1[8[6]]]                                                   
  H          -3.783085             3.629081             0.423102            0             0.031932    [1[6[8][1][1]]]                                             
  H          -4.640133             5.102742             0.387107            0             0.031932    [1[6[8][1][1]]]                                             
  H          -4.887416             4.115966             1.738798            0             0.031932    [1[6[8][1][1]]]                                             
  C          -9.188982             2.734245            -3.089868            1             0.099454    [6[8[1]][1][1][1]]                                          
  O          -7.949023             2.911490            -3.748448            1            -0.597823    [8[6[1][1][1]][1]]                                          
  H          -7.436477             3.426553            -3.131312            1             0.402573    [1[8[6]]]                                                   
  H          -9.203550             1.752508            -2.653941            1             0.031932    [1[6[8][1][1]]]                                             
  H          -9.451400             3.492022            -2.322861            1             0.031932    [1[6[8][1][1]]]                                             
  H          -10.104893            2.853784            -3.707225            1             0.031932    [1[6[8][1][1]]]                                             
