12

  C           5.651281            -6.607152            -7.131808            0             0.099454    [6[8[1]][1][1][1]]                                          
  O           4.421029            -6.172387            -6.635053            0            -0.597823    [8[6[1][1][1]][1]]                                          
  H           3.846128            -6.941923            -6.443546            0             0.402573    [1[8[6]]]                                                   
  H           6.331579            -5.736460            -7.229165            0             0.031932    [1[6[8][1][1]]]                                             
  H           6.041744            -7.382705            -6.519006            0             0.031932    [1[6[8][1][1]]]                                             
  H           5.543523            -7.079936            -8.062609            0             0.031932    [1[6[8][1][1]]]                                             
  C           9.737229            -8.670955            -6.445345            1             0.099454    [6[8[1]][1][1][1]]                                          
  O           8.921854            -7.801298            -7.203061            1            -0.597823    [8[6[1][1][1]][1]]                                          
  H           8.022620            -7.773771            -6.947622            1             0.402573    [1[8[6]]]                                                   
  H           9.899535            -8.475589            -5.399964            1             0.031932    [1[6[8][1][1]]]                                             
  H           9.368879            -9.762855            -6.534120            1             0.031932    [1[6[8][1][1]]]                                             
  H           10.768083           -8.790271            -6.912394            1             0.031932    [1[6[8][1][1]]]                                             
