12

  C           4.711834            -8.345417            -1.787665            0             0.099454    [6[8[1]][1][1][1]]                                          
  O           4.351505            -9.380712            -2.640933            0            -0.597823    [8[6[1][1][1]][1]]                                          
  H           4.436691            -10.246070           -2.192788            0             0.402573    [1[8[6]]]                                                   
  H           5.247250            -7.520029            -2.200052            0             0.031932    [1[6[8][1][1]]]                                             
  H           3.785953            -7.910492            -1.349305            0             0.031932    [1[6[8][1][1]]]                                             
  H           5.296892            -8.815568            -0.964432            0             0.031932    [1[6[8][1][1]]]                                             
  C           8.381037            -9.221024            -2.445365            1             0.099454    [6[8[1]][1][1][1]]                                          
  O           7.711288            -9.785594            -3.581768            1            -0.597823    [8[6[1][1][1]][1]]                                          
  H           7.153848            -9.079811            -3.973077            1             0.402573    [1[8[6]]]                                                   
  H           7.701811            -9.104353            -1.629478            1             0.031932    [1[6[8][1][1]]]                                             
  H           9.079876            -9.952231            -2.183109            1             0.031932    [1[6[8][1][1]]]                                             
  H           8.852604            -8.316169            -2.784880            1             0.031932    [1[6[8][1][1]]]                                             
