12

  C           8.813563            -5.362564            -9.099402            0             0.099454    [6[8[1]][1][1][1]]                                          
  O           7.631475            -6.211392            -8.805100            0            -0.597823    [8[6[1][1][1]][1]]                                          
  H           7.480940            -6.748044            -9.586111            0             0.402573    [1[8[6]]]                                                   
  H           8.838425            -4.975948            -10.120209           0             0.031932    [1[6[8][1][1]]]                                             
  H           8.859038            -4.575543            -8.345183            0             0.031932    [1[6[8][1][1]]]                                             
  H           9.709252            -5.911968            -8.893327            0             0.031932    [1[6[8][1][1]]]                                             
  C           4.999269            -7.787659            -10.621185           1             0.099454    [6[8[1]][1][1][1]]                                          
  O           6.223927            -7.393043            -11.259496           1            -0.597823    [8[6[1][1][1]][1]]                                          
  H           6.016393            -6.779621            -11.954958           1             0.402573    [1[8[6]]]                                                   
  H           4.262193            -8.069069            -11.347399           1             0.031932    [1[6[8][1][1]]]                                             
  H           5.041425            -8.642465            -9.976267            1             0.031932    [1[6[8][1][1]]]                                             
  H           4.608047            -6.987080            -10.034388           1             0.031932    [1[6[8][1][1]]]                                             
