12

  C           2.189674            -1.010247             4.700833            0             0.099454    [6[8[1]][1][1][1]]                                          
  O           1.194320            -0.027531             4.920133            0            -0.597823    [8[6[1][1][1]][1]]                                          
  H           0.505740            -0.402246             5.447141            0             0.402573    [1[8[6]]]                                                   
  H           2.137842            -1.454078             3.693112            0             0.031932    [1[6[8][1][1]]]                                             
  H           3.265044            -0.626373             4.644516            0             0.031932    [1[6[8][1][1]]]                                             
  H           2.152488            -1.850272             5.418308            0             0.031932    [1[6[8][1][1]]]                                             
  C          -3.580619            -0.811597             5.816965            1             0.099454    [6[8[1]][1][1][1]]                                          
  O          -2.256292            -0.945819             5.365711            1            -0.597823    [8[6[1][1][1]][1]]                                          
  H          -1.594474            -0.478532             5.898035            1             0.402573    [1[8[6]]]                                                   
  H          -3.773277            -1.286133             6.793522            1             0.031932    [1[6[8][1][1]]]                                             
  H          -3.960942             0.289719             5.922689            1             0.031932    [1[6[8][1][1]]]                                             
  H          -4.295211            -1.246757             5.123571            1             0.031932    [1[6[8][1][1]]]                                             
