12

  C           2.306363             7.977900            -7.049044            0             0.099454    [6[8[1]][1][1][1]]                                          
  O           3.680497             7.508819            -7.003539            0            -0.597823    [8[6[1][1][1]][1]]                                          
  H           3.822370             6.627895            -7.386926            0             0.402573    [1[8[6]]]                                                   
  H           2.324172             9.011762            -7.391483            0             0.031932    [1[6[8][1][1]]]                                             
  H           1.650519             7.439648            -7.782240            0             0.031932    [1[6[8][1][1]]]                                             
  H           1.747418             7.886337            -6.125104            0             0.031932    [1[6[8][1][1]]]                                             
  C           2.722578             4.133135            -4.885620            1             0.099454    [6[8[1]][1][1][1]]                                          
  O           4.120572             4.134643            -4.407210            1            -0.597823    [8[6[1][1][1]][1]]                                          
  H           4.093610             4.370129            -3.497614            1             0.402573    [1[8[6]]]                                                   
  H           2.658445             4.004755            -5.980850            1             0.031932    [1[6[8][1][1]]]                                             
  H           2.083581             3.392493            -4.388767            1             0.031932    [1[6[8][1][1]]]                                             
  H           2.263852             5.133771            -4.764851            1             0.031932    [1[6[8][1][1]]]                                             
