12

  C          -3.092686            -1.451874             10.711364           0             0.099454    [6[8[1]][1][1][1]]                                          
  O          -2.273163            -2.540808             10.545648           0            -0.597823    [8[6[1][1][1]][1]]                                          
  H          -2.684214            -3.268882             11.063944           0             0.402573    [1[8[6]]]                                                   
  H          -4.148534            -1.721086             10.677316           0             0.031932    [1[6[8][1][1]]]                                             
  H          -2.829864            -0.967831             11.633750           0             0.031932    [1[6[8][1][1]]]                                             
  H          -2.944506            -0.806253             9.884226            0             0.031932    [1[6[8][1][1]]]                                             
  C          -6.767604            -2.303085             9.470767            1             0.099454    [6[8[1]][1][1][1]]                                          
  O          -7.417140            -3.417160             10.135505           1            -0.597823    [8[6[1][1][1]][1]]                                          
  H          -7.310689            -3.242921             11.064672           1             0.402573    [1[8[6]]]                                                   
  H          -5.714070            -2.228165             9.764882            1             0.031932    [1[6[8][1][1]]]                                             
  H          -6.698954            -2.457698             8.384943            1             0.031932    [1[6[8][1][1]]]                                             
  H          -7.079861            -1.301568             9.764304            1             0.031932    [1[6[8][1][1]]]                                             
