12

  C          -8.336969            -4.600054             6.961619            0             0.099454    [6[8[1]][1][1][1]]                                          
  O          -7.406997            -4.718792             5.976221            0            -0.597823    [8[6[1][1][1]][1]]                                          
  H          -6.557219            -5.068828             6.345814            0             0.402573    [1[8[6]]]                                                   
  H          -9.026821            -3.757067             6.800029            0             0.031932    [1[6[8][1][1]]]                                             
  H          -9.068774            -5.485411             6.969378            0             0.031932    [1[6[8][1][1]]]                                             
  H          -7.848887            -4.496328             7.950912            0             0.031932    [1[6[8][1][1]]]                                             
  C          -8.584011            -7.656971             10.581008           1             0.099454    [6[8[1]][1][1][1]]                                          
  O          -7.674715            -6.777983             10.007865           1            -0.597823    [8[6[1][1][1]][1]]                                          
  H          -6.853025            -7.140505             10.301418           1             0.402573    [1[8[6]]]                                                   
  H          -8.119190            -8.646090             10.809109           1             0.031932    [1[6[8][1][1]]]                                             
  H          -9.085518            -7.182406             11.434163           1             0.031932    [1[6[8][1][1]]]                                             
  H          -9.323413            -7.939942             9.860139            1             0.031932    [1[6[8][1][1]]]                                             
