12

  C          -3.729851             3.038293             4.185323            0             0.099454    [6[8[1]][1][1][1]]                                          
  O          -3.523052             2.471416             5.433180            0            -0.597823    [8[6[1][1][1]][1]]                                          
  H          -4.135422             2.762021             6.113348            0             0.402573    [1[8[6]]]                                                   
  H          -4.740345             3.461552             4.070275            0             0.031932    [1[6[8][1][1]]]                                             
  H          -3.093136             3.884884             4.062776            0             0.031932    [1[6[8][1][1]]]                                             
  H          -3.567683             2.320354             3.352861            0             0.031932    [1[6[8][1][1]]]                                             
  C          -6.628751             4.410598             1.237463            1             0.099454    [6[8[1]][1][1][1]]                                          
  O          -6.240640             3.256132             1.916110            1            -0.597823    [8[6[1][1][1]][1]]                                          
  H          -6.294813             3.544461             2.875612            1             0.402573    [1[8[6]]]                                                   
  H          -7.445922             4.955824             1.738805            1             0.031932    [1[6[8][1][1]]]                                             
  H          -5.770708             4.985715             1.059692            1             0.031932    [1[6[8][1][1]]]                                             
  H          -6.850357             4.201028             0.178720            1             0.031932    [1[6[8][1][1]]]                                             
