12

  C          -1.759558            -3.697240             10.473655           0             0.099454    [6[8[1]][1][1][1]]                                          
  O          -1.814703            -2.791501             9.446395            0            -0.597823    [8[6[1][1][1]][1]]                                          
  H          -1.493921            -1.963915             9.817831            0             0.402573    [1[8[6]]]                                                   
  H          -0.839036            -3.765161             10.942798           0             0.031932    [1[6[8][1][1]]]                                             
  H          -2.437705            -3.484567             11.215743           0             0.031932    [1[6[8][1][1]]]                                             
  H          -1.906414            -4.658250             10.028213           0             0.031932    [1[6[8][1][1]]]                                             
  C          -2.480424             1.308828             7.904205            1             0.099454    [6[8[1]][1][1][1]]                                          
  O          -1.509948             0.802413             7.031501            1            -0.597823    [8[6[1][1][1]][1]]                                          
  H          -1.975338             0.214268             6.452613            1             0.402573    [1[8[6]]]                                                   
  H          -2.494032             0.674964             8.764390            1             0.031932    [1[6[8][1][1]]]                                             
  H          -2.228813             2.301698             8.272983            1             0.031932    [1[6[8][1][1]]]                                             
  H          -3.456427             1.299778             7.479879            1             0.031932    [1[6[8][1][1]]]                                             
