12

  C           10.097442           -11.021088            4.792170            0             0.099454    [6[8[1]][1][1][1]]                                          
  O           9.797004            -10.184872            3.709985            0            -0.597823    [8[6[1][1][1]][1]]                                          
  H           10.061023           -9.304137             3.936101            0             0.402573    [1[8[6]]]                                                   
  H           10.118877           -12.027282            4.441475            0             0.031932    [1[6[8][1][1]]]                                             
  H           11.067215           -10.924921            5.229111            0             0.031932    [1[6[8][1][1]]]                                             
  H           9.389762            -10.964575            5.682178            0             0.031932    [1[6[8][1][1]]]                                             
  C           9.807481            -6.265374             3.255807            1             0.099454    [6[8[1]][1][1][1]]                                          
  O           8.516116            -5.985784             2.849230            1            -0.597823    [8[6[1][1][1]][1]]                                          
  H           7.873444            -6.652670             3.107081            1             0.402573    [1[8[6]]]                                                   
  H           9.878384            -6.416579             4.390140            1             0.031932    [1[6[8][1][1]]]                                             
  H           10.158821           -7.284269             2.864965            1             0.031932    [1[6[8][1][1]]]                                             
  H           10.483945           -5.489420             2.930069            1             0.031932    [1[6[8][1][1]]]                                             
