12

  C          -7.916342            -6.777899            -3.497241            0             0.099454    [6[8[1]][1][1][1]]                                          
  O          -8.592063            -7.645050            -2.610539            0            -0.597823    [8[6[1][1][1]][1]]                                          
  H          -8.289805            -7.563570            -1.732779            0             0.402573    [1[8[6]]]                                                   
  H          -6.857783            -7.080269            -3.642114            0             0.031932    [1[6[8][1][1]]]                                             
  H          -8.305381            -6.748343            -4.490312            0             0.031932    [1[6[8][1][1]]]                                             
  H          -8.036397            -5.738256            -3.130291            0             0.031932    [1[6[8][1][1]]]                                             
  C          -7.949055            -9.171305            -6.566835            1             0.099454    [6[8[1]][1][1][1]]                                          
  O          -8.982075            -8.273082            -6.852369            1            -0.597823    [8[6[1][1][1]][1]]                                          
  H          -8.439640            -7.513511            -7.058999            1             0.402573    [1[8[6]]]                                                   
  H          -7.037029            -9.018700            -7.166905            1             0.031932    [1[6[8][1][1]]]                                             
  H          -7.643131            -8.978097            -5.558532            1             0.031932    [1[6[8][1][1]]]                                             
  H          -8.170766            -10.203733           -6.710026            1             0.031932    [1[6[8][1][1]]]                                             
