12

  C          -2.553089            -9.341690             7.829840            0             0.099454    [6[8[1]][1][1][1]]                                          
  O          -3.202982            -9.262673             6.528423            0            -0.597823    [8[6[1][1][1]][1]]                                          
  H          -3.995979            -9.807772             6.501171            0             0.402573    [1[8[6]]]                                                   
  H          -1.675079            -8.720392             7.907150            0             0.031932    [1[6[8][1][1]]]                                             
  H          -3.152298            -8.937749             8.646217            0             0.031932    [1[6[8][1][1]]]                                             
  H          -2.217675            -10.345372            8.116701            0             0.031932    [1[6[8][1][1]]]                                             
  C           0.147487            -10.878635            5.552531            1             0.099454    [6[8[1]][1][1][1]]                                          
  O          -0.847567            -10.263458            6.365772            1            -0.597823    [8[6[1][1][1]][1]]                                          
  H          -1.074027            -9.403888             6.015301            1             0.402573    [1[8[6]]]                                                   
  H          -0.429552            -11.525158            4.836190            1             0.031932    [1[6[8][1][1]]]                                             
  H           0.745412            -10.186834            4.917920            1             0.031932    [1[6[8][1][1]]]                                             
  H           0.793972            -11.591896            6.171292            1             0.031932    [1[6[8][1][1]]]                                             
