12

  C          -1.585375            -0.526504             1.034932            0             0.099454    [6[8[1]][1][1][1]]                                          
  O          -1.659778            -0.611331             2.447003            0            -0.597823    [8[6[1][1][1]][1]]                                          
  H          -2.532319            -0.358363             2.745018            0             0.402573    [1[8[6]]]                                                   
  H          -0.888317             0.258825             0.604334            0             0.031932    [1[6[8][1][1]]]                                             
  H          -1.291051            -1.503012             0.632394            0             0.031932    [1[6[8][1][1]]]                                             
  H          -2.593034            -0.391837             0.618044            0             0.031932    [1[6[8][1][1]]]                                             
  C          -2.126235            -0.360681            -2.637112            1             0.099454    [6[8[1]][1][1][1]]                                          
  O          -1.117700            -1.154782            -3.243928            1            -0.597823    [8[6[1][1][1]][1]]                                          
  H          -0.344218            -1.171476            -2.675353            1             0.402573    [1[8[6]]]                                                   
  H          -2.847046            -0.072665            -3.423563            1             0.031932    [1[6[8][1][1]]]                                             
  H          -2.661588            -0.937043            -1.872576            1             0.031932    [1[6[8][1][1]]]                                             
  H          -1.636193             0.528980            -2.202952            1             0.031932    [1[6[8][1][1]]]                                             
