12

  C           3.021370             9.219144            -8.876034            0             0.099454    [6[8[1]][1][1][1]]                                          
  O           2.988232             10.333611           -8.053201            0            -0.597823    [8[6[1][1][1]][1]]                                          
  H           3.566255             11.030090           -8.396873            0             0.402573    [1[8[6]]]                                                   
  H           2.927108             8.298902            -8.306554            0             0.031932    [1[6[8][1][1]]]                                             
  H           2.081663             9.364225            -9.548580            0             0.031932    [1[6[8][1][1]]]                                             
  H           3.885532             9.146176            -9.495416            0             0.031932    [1[6[8][1][1]]]                                             
  C           2.163176             6.492274            -4.981907            1             0.099454    [6[8[1]][1][1][1]]                                          
  O           1.985793             5.101903            -4.804777            1            -0.597823    [8[6[1][1][1]][1]]                                          
  H           2.362999             4.914867            -3.969239            1             0.402573    [1[8[6]]]                                                   
  H           2.898402             6.911257            -4.360386            1             0.031932    [1[6[8][1][1]]]                                             
  H           2.393466             6.722393            -6.010610            1             0.031932    [1[6[8][1][1]]]                                             
  H           1.274072             6.999518            -4.632095            1             0.031932    [1[6[8][1][1]]]                                             
