12

  C           1.882657            -5.473259            -4.311445            0             0.099454    [6[8[1]][1][1][1]]                                          
  O           1.200089            -6.616802            -4.829966            0            -0.597823    [8[6[1][1][1]][1]]                                          
  H           0.588911            -6.281126            -5.540718            0             0.402573    [1[8[6]]]                                                   
  H           2.877696            -5.712606            -3.843402            0             0.031932    [1[6[8][1][1]]]                                             
  H           2.170245            -4.752331            -5.142988            0             0.031932    [1[6[8][1][1]]]                                             
  H           1.250145            -4.869591            -3.657311            0             0.031932    [1[6[8][1][1]]]                                             
  C          -2.136062            -3.976692            -3.231994            1             0.099454    [6[8[1]][1][1][1]]                                          
  O          -1.963163            -2.728974            -2.551263            1            -0.597823    [8[6[1][1][1]][1]]                                          
  H          -1.692615            -3.045034            -1.701151            1             0.402573    [1[8[6]]]                                                   
  H          -2.998761            -4.552751            -2.801274            1             0.031932    [1[6[8][1][1]]]                                             
  H          -2.348486            -3.805273            -4.315481            1             0.031932    [1[6[8][1][1]]]                                             
  H          -1.170440            -4.457272            -3.288040            1             0.031932    [1[6[8][1][1]]]                                             
