12

  C          -3.440480             1.608124            -5.363870            0             0.099454    [6[8[1]][1][1][1]]                                          
  O          -4.023051             1.698251            -6.686188            0            -0.597823    [8[6[1][1][1]][1]]                                          
  H          -4.350094             0.892071            -7.073146            0             0.402573    [1[8[6]]]                                                   
  H          -4.299878             1.217766            -4.707092            0             0.031932    [1[6[8][1][1]]]                                             
  H          -2.598717             0.960056            -5.139841            0             0.031932    [1[6[8][1][1]]]                                             
  H          -3.210669             2.597576            -4.898620            0             0.031932    [1[6[8][1][1]]]                                             
  C          -3.083535            -0.036181            -1.632068            1             0.099454    [6[8[1]][1][1][1]]                                          
  O          -2.170263            -0.152564            -2.684207            1            -0.597823    [8[6[1][1][1]][1]]                                          
  H          -2.682957            -0.716666            -3.265436            1             0.402573    [1[8[6]]]                                                   
  H          -4.043141             0.216827            -1.945819            1             0.031932    [1[6[8][1][1]]]                                             
  H          -3.099565            -0.922506            -1.014812            1             0.031932    [1[6[8][1][1]]]                                             
  H          -2.800930             0.780589            -0.955522            1             0.031932    [1[6[8][1][1]]]                                             
