12

  C           8.152796             8.556054            -5.321419            0             0.099454    [6[8[1]][1][1][1]]                                          
  O           6.909219             9.044673            -4.812207            0            -0.597823    [8[6[1][1][1]][1]]                                          
  H           6.285718             8.702034            -5.470259            0             0.402573    [1[8[6]]]                                                   
  H           8.064256             8.349003            -6.365875            0             0.031932    [1[6[8][1][1]]]                                             
  H           9.010342             9.257000            -5.240811            0             0.031932    [1[6[8][1][1]]]                                             
  H           8.377186             7.606242            -4.788367            0             0.031932    [1[6[8][1][1]]]                                             
  C           5.841575             5.538677            -8.971014            1             0.099454    [6[8[1]][1][1][1]]                                          
  O           5.937929             5.637680            -10.311734           1            -0.597823    [8[6[1][1][1]][1]]                                          
  H           6.324297             4.832202            -10.653868           1             0.402573    [1[8[6]]]                                                   
  H           5.247490             6.394668            -8.527192            1             0.031932    [1[6[8][1][1]]]                                             
  H           5.280921             4.660592            -8.722857            1             0.031932    [1[6[8][1][1]]]                                             
  H           6.775231             5.503065            -8.381655            1             0.031932    [1[6[8][1][1]]]                                             
