12

  C          -0.715228             1.050743             2.453242            0             0.099454    [6[8[1]][1][1][1]]                                          
  O          -1.854007             0.340821             2.144338            0            -0.597823    [8[6[1][1][1]][1]]                                          
  H          -2.633239             0.803480             2.639829            0             0.402573    [1[8[6]]]                                                   
  H          -0.871798             2.130612             2.284487            0             0.031932    [1[6[8][1][1]]]                                             
  H          -0.449429             0.971583             3.539397            0             0.031932    [1[6[8][1][1]]]                                             
  H           0.102194             0.804007             1.757111            0             0.031932    [1[6[8][1][1]]]                                             
  C          -1.657348            -2.605589             3.107495            1             0.099454    [6[8[1]][1][1][1]]                                          
  O          -1.433084            -3.963794             3.336402            1            -0.597823    [8[6[1][1][1]][1]]                                          
  H          -1.822367            -4.471035             2.634541            1             0.402573    [1[8[6]]]                                                   
  H          -1.025186            -1.978984             3.793105            1             0.031932    [1[6[8][1][1]]]                                             
  H          -1.370348            -2.277809             2.137469            1             0.031932    [1[6[8][1][1]]]                                             
  H          -2.655147            -2.318401             3.325334            1             0.031932    [1[6[8][1][1]]]                                             
