12

  C           6.607193            -4.525845             4.377470            0             0.099454    [6[8[1]][1][1][1]]                                          
  O           6.373419            -5.532670             3.540175            0            -0.597823    [8[6[1][1][1]][1]]                                          
  H           5.453092            -5.878373             3.648403            0             0.402573    [1[8[6]]]                                                   
  H           6.456532            -4.812050             5.465561            0             0.031932    [1[6[8][1][1]]]                                             
  H           7.700353            -4.239288             4.432152            0             0.031932    [1[6[8][1][1]]]                                             
  H           6.134564            -3.540531             4.143520            0             0.031932    [1[6[8][1][1]]]                                             
  C           9.769262            -7.615812             2.790514            1             0.099454    [6[8[1]][1][1][1]]                                          
  O           9.008216            -7.107357             3.842723            1            -0.597823    [8[6[1][1][1]][1]]                                          
  H           8.368611            -6.424583             3.579696            1             0.402573    [1[8[6]]]                                                   
  H           10.096084           -6.844270             2.058707            1             0.031932    [1[6[8][1][1]]]                                             
  H           10.680623           -8.247981             3.015261            1             0.031932    [1[6[8][1][1]]]                                             
  H           9.048074            -8.278139             2.241576            1             0.031932    [1[6[8][1][1]]]                                             
