12

  C          -4.783363             4.112619            -2.570429            0             0.099454    [6[8[1]][1][1][1]]                                          
  O          -6.170966             4.051347            -2.271669            0            -0.597823    [8[6[1][1][1]][1]]                                          
  H          -6.396381             3.112215            -2.297182            0             0.402573    [1[8[6]]]                                                   
  H          -4.677063             4.150604            -3.633048            0             0.031932    [1[6[8][1][1]]]                                             
  H          -4.392991             5.100541            -2.206898            0             0.031932    [1[6[8][1][1]]]                                             
  H          -4.210136             3.298748            -2.150329            0             0.031932    [1[6[8][1][1]]]                                             
  C          -3.148170             5.526536             0.250592            1             0.099454    [6[8[1]][1][1][1]]                                          
  O          -4.122243             6.461500             0.653780            1            -0.597823    [8[6[1][1][1]][1]]                                          
  H          -4.972779             6.142392             0.328687            1             0.402573    [1[8[6]]]                                                   
  H          -2.964292             5.774731            -0.804132            1             0.031932    [1[6[8][1][1]]]                                             
  H          -2.171916             5.713092             0.804986            1             0.031932    [1[6[8][1][1]]]                                             
  H          -3.408570             4.525718             0.398298            1             0.031932    [1[6[8][1][1]]]                                             
