12

  C           6.841558            -4.279358             3.593163            0             0.099454    [6[8[1]][1][1][1]]                                          
  O           6.967058            -5.324514             2.727259            0            -0.597823    [8[6[1][1][1]][1]]                                          
  H           6.968686            -6.154978             3.242085            0             0.402573    [1[8[6]]]                                                   
  H           6.939423            -3.275139             3.211090            0             0.031932    [1[6[8][1][1]]]                                             
  H           5.826904            -4.372985             4.033386            0             0.031932    [1[6[8][1][1]]]                                             
  H           7.520350            -4.294207             4.443900            0             0.031932    [1[6[8][1][1]]]                                             
  C           6.084113            -8.611953             1.806768            1             0.099454    [6[8[1]][1][1][1]]                                          
  O           7.327695            -8.626183             2.447015            1            -0.597823    [8[6[1][1][1]][1]]                                          
  H           7.478803            -8.353929             3.386143            1             0.402573    [1[8[6]]]                                                   
  H           5.727032            -7.640368             1.558098            1             0.031932    [1[6[8][1][1]]]                                             
  H           5.902592            -9.304816             1.042302            1             0.031932    [1[6[8][1][1]]]                                             
  H           5.355908            -8.998010             2.538191            1             0.031932    [1[6[8][1][1]]]                                             
