9

C  1.09495000          -0.02763000          -0.00040000         
C  2.58938000           0.06253000          -0.06794000         
N  3.17950000           1.03656000          -0.79758000         
O  3.27601000          -0.74624000           0.53791000         
H  0.77958000          -0.88029000           0.63833000         
H  0.68490000          -0.17408000          -1.02155000         
H  0.68490000           0.91117000           0.42719000         
H  4.20704000           1.10220000          -0.84675000         
H  2.60785000           1.72288000          -1.31170000         
