12

  C          -3.510231            -1.086601            -3.537600            0             0.099454    [6[8[1]][1][1][1]]                                          
  O          -4.343705            -1.752611            -4.437602            0            -0.597823    [8[6[1][1][1]][1]]                                          
  H          -5.224240            -1.403687            -4.477860            0             0.402573    [1[8[6]]]                                                   
  H          -4.049414            -0.835512            -2.615135            0             0.031932    [1[6[8][1][1]]]                                             
  H          -2.571821            -1.682410            -3.278911            0             0.031932    [1[6[8][1][1]]]                                             
  H          -3.190376            -0.068218            -3.952758            0             0.031932    [1[6[8][1][1]]]                                             
  C          -7.895082            -0.450816            -3.438418            1             0.099454    [6[8[1]][1][1][1]]                                          
  O          -6.790914            -1.236352            -2.968042            1            -0.597823    [8[6[1][1][1]][1]]                                          
  H          -6.962837            -1.616194            -2.049960            1             0.402573    [1[8[6]]]                                                   
  H          -8.781143            -1.121909            -3.639668            1             0.031932    [1[6[8][1][1]]]                                             
  H          -8.113031             0.359831            -2.751344            1             0.031932    [1[6[8][1][1]]]                                             
  H          -7.681932            -0.008726            -4.411791            1             0.031932    [1[6[8][1][1]]]                                             
