12

  C           5.651281            -6.607152            -7.131808            0             0.099454    [6[8[1]][1][1][1]]                                          
  O           4.421029            -6.172387            -6.635053            0            -0.597823    [8[6[1][1][1]][1]]                                          
  H           3.846128            -6.941923            -6.443546            0             0.402573    [1[8[6]]]                                                   
  H           6.331579            -5.736460            -7.229165            0             0.031932    [1[6[8][1][1]]]                                             
  H           6.041744            -7.382705            -6.519006            0             0.031932    [1[6[8][1][1]]]                                             
  H           5.543523            -7.079936            -8.062609            0             0.031932    [1[6[8][1][1]]]                                             
  C           5.063099            -1.500940            -9.334182            1             0.099454    [6[8[1]][1][1][1]]                                          
  O           4.808947            -0.973593            -8.100371            1            -0.597823    [8[6[1][1][1]][1]]                                          
  H           5.054176            -1.569019            -7.353234            1             0.402573    [1[8[6]]]                                                   
  H           6.141937            -1.618277            -9.421419            1             0.031932    [1[6[8][1][1]]]                                             
  H           4.541301            -2.439187            -9.608588            1             0.031932    [1[6[8][1][1]]]                                             
  H           4.776940            -0.855996            -10.258623           1             0.031932    [1[6[8][1][1]]]                                             
