12

  C           1.559900            -2.722183            -4.387843            0             0.099454    [6[8[1]][1][1][1]]                                          
  O           1.024097            -3.110512            -3.120615            0            -0.597823    [8[6[1][1][1]][1]]                                          
  H           0.241665            -2.671256            -2.909754            0             0.402573    [1[8[6]]]                                                   
  H           2.034390            -3.613840            -4.841094            0             0.031932    [1[6[8][1][1]]]                                             
  H           0.813583            -2.312463            -5.113704            0             0.031932    [1[6[8][1][1]]]                                             
  H           2.363234            -2.014412            -4.232848            0             0.031932    [1[6[8][1][1]]]                                             
  C           2.751521            -1.597827            -1.885978            1             0.099454    [6[8[1]][1][1][1]]                                          
  O           3.773817            -1.661260            -2.863987            1            -0.597823    [8[6[1][1][1]][1]]                                          
  H           3.679753            -0.888803            -3.452431            1             0.402573    [1[8[6]]]                                                   
  H           2.724671            -2.546805            -1.320822            1             0.031932    [1[6[8][1][1]]]                                             
  H           2.854509            -0.898560            -1.090563            1             0.031932    [1[6[8][1][1]]]                                             
  H           1.743488            -1.457606            -2.216906            1             0.031932    [1[6[8][1][1]]]                                             
