12

  C          -8.419995             4.983387             7.231056            0             0.099454    [6[8[1]][1][1][1]]                                          
  O          -8.925307             4.145394             8.291104            0            -0.597823    [8[6[1][1][1]][1]]                                          
  H          -9.807980             4.169145             8.024877            0             0.402573    [1[8[6]]]                                                   
  H          -8.118618             5.961842             7.656485            0             0.031932    [1[6[8][1][1]]]                                             
  H          -7.403915             4.578973             6.863070            0             0.031932    [1[6[8][1][1]]]                                             
  H          -8.992139             5.220278             6.336531            0             0.031932    [1[6[8][1][1]]]                                             
  C          -10.093289            1.103940             9.916650            1             0.099454    [6[8[1]][1][1][1]]                                          
  O          -10.461866            2.426109             9.879604            1            -0.597823    [8[6[1][1][1]][1]]                                          
  H          -9.652044             3.001358             9.833511            1             0.402573    [1[8[6]]]                                                   
  H          -9.199362             0.937206             10.515245           1             0.031932    [1[6[8][1][1]]]                                             
  H          -10.851303            0.534979             10.498085           1             0.031932    [1[6[8][1][1]]]                                             
  H          -10.048276            0.648209             8.947210            1             0.031932    [1[6[8][1][1]]]                                             
