12

  C           7.010154            -0.039045            -9.433605            0             0.099454    [6[8[1]][1][1][1]]                                          
  O           8.270154             0.587972            -9.839625            0            -0.597823    [8[6[1][1][1]][1]]                                          
  H           8.487820             0.297724            -10.722834           0             0.402573    [1[8[6]]]                                                   
  H           6.245528             0.058010            -10.219982           0             0.031932    [1[6[8][1][1]]]                                             
  H           7.161661            -1.110750            -9.489318            0             0.031932    [1[6[8][1][1]]]                                             
  H           6.696794             0.214839            -8.443639            0             0.031932    [1[6[8][1][1]]]                                             
  C           6.967380             2.365094            -4.468360            1             0.099454    [6[8[1]][1][1][1]]                                          
  O           6.786280             0.978257            -4.387859            1            -0.597823    [8[6[1][1][1]][1]]                                          
  H           5.891313             0.887971            -4.708444            1             0.402573    [1[8[6]]]                                                   
  H           7.140251             2.770999            -5.463026            1             0.031932    [1[6[8][1][1]]]                                             
  H           6.044840             2.850187            -4.180671            1             0.031932    [1[6[8][1][1]]]                                             
  H           7.689173             2.773234            -3.763041            1             0.031932    [1[6[8][1][1]]]                                             
