12

  C          -5.645100            -5.265609            -10.577145           0             0.099454    [6[8[1]][1][1][1]]                                          
  O          -5.475820            -6.298376            -9.712009            0            -0.597823    [8[6[1][1][1]][1]]                                          
  H          -4.949007            -6.002710            -8.940312            0             0.402573    [1[8[6]]]                                                   
  H          -6.556035            -5.316734            -11.159871           0             0.031932    [1[6[8][1][1]]]                                             
  H          -5.682167            -4.306870            -9.981822            0             0.031932    [1[6[8][1][1]]]                                             
  H          -4.769615            -5.084458            -11.263776           0             0.031932    [1[6[8][1][1]]]                                             
  C          -5.238293            -6.196731            -5.872631            1             0.099454    [6[8[1]][1][1][1]]                                          
  O          -4.621583            -5.535733            -6.976614            1            -0.597823    [8[6[1][1][1]][1]]                                          
  H          -4.832369            -4.621618            -6.896878            1             0.402573    [1[8[6]]]                                                   
  H          -5.223989            -7.329175            -5.912916            1             0.031932    [1[6[8][1][1]]]                                             
  H          -4.700855            -5.911330            -4.882945            1             0.031932    [1[6[8][1][1]]]                                             
  H          -6.326395            -5.904284            -5.890630            1             0.031932    [1[6[8][1][1]]]                                             
