12

  C           7.981455             6.285149             6.688696            0             0.099454    [6[8[1]][1][1][1]]                                          
  O           7.320770             5.234666             7.420826            0            -0.597823    [8[6[1][1][1]][1]]                                          
  H           8.008159             4.788623             7.945116            0             0.402573    [1[8[6]]]                                                   
  H           8.256039             5.923979             5.743816            0             0.031932    [1[6[8][1][1]]]                                             
  H           7.261805             7.101432             6.695755            0             0.031932    [1[6[8][1][1]]]                                             
  H           8.826434             6.675996             7.248663            0             0.031932    [1[6[8][1][1]]]                                             
  C           6.702892             0.779702             7.600748            1             0.099454    [6[8[1]][1][1][1]]                                          
  O           7.121883             1.692307             6.609128            1            -0.597823    [8[6[1][1][1]][1]]                                          
  H           7.273720             2.593465             6.912985            1             0.402573    [1[8[6]]]                                                   
  H           7.038373             1.054997             8.600324            1             0.031932    [1[6[8][1][1]]]                                             
  H           5.597028             0.886269             7.755625            1             0.031932    [1[6[8][1][1]]]                                             
  H           6.986620            -0.200158             7.380845            1             0.031932    [1[6[8][1][1]]]                                             
