12

  C           4.546624            -10.081734           -0.355543            0             0.099454    [6[8[1]][1][1][1]]                                          
  O           3.316980            -9.471916            -0.450149            0            -0.597823    [8[6[1][1][1]][1]]                                          
  H           3.133284            -8.853097             0.272998            0             0.402573    [1[8[6]]]                                                   
  H           5.079215            -10.102797           -1.305874            0             0.031932    [1[6[8][1][1]]]                                             
  H           5.187251            -9.604669             0.363695            0             0.031932    [1[6[8][1][1]]]                                             
  H           4.466684            -11.200598           -0.094542            0             0.031932    [1[6[8][1][1]]]                                             
  C           1.237218            -10.571253           -4.731252            1             0.099454    [6[8[1]][1][1][1]]                                          
  O           2.090663            -11.620678           -4.301068            1            -0.597823    [8[6[1][1][1]][1]]                                          
  H           1.684505            -12.049990           -3.539937            1             0.402573    [1[8[6]]]                                                   
  H           1.738121            -9.896252            -5.432714            1             0.031932    [1[6[8][1][1]]]                                             
  H           0.298399            -10.936982           -5.241484            1             0.031932    [1[6[8][1][1]]]                                             
  H           0.890046            -9.963813            -3.901905            1             0.031932    [1[6[8][1][1]]]                                             
