12

  C          -3.318311            -0.619609            -4.975786            0             0.099454    [6[8[1]][1][1][1]]                                          
  O          -2.848868            -0.188945            -3.711665            0            -0.597823    [8[6[1][1][1]][1]]                                          
  H          -2.709265             0.711760            -3.772373            0             0.402573    [1[8[6]]]                                                   
  H          -2.662649            -0.195860            -5.703031            0             0.031932    [1[6[8][1][1]]]                                             
  H          -3.228268            -1.702189            -5.124246            0             0.031932    [1[6[8][1][1]]]                                             
  H          -4.392851            -0.308560            -5.145854            0             0.031932    [1[6[8][1][1]]]                                             
  C          -2.536524            -5.092368            -7.937010            1             0.099454    [6[8[1]][1][1][1]]                                          
  O          -2.490493            -3.661079            -7.850409            1            -0.597823    [8[6[1][1][1]][1]]                                          
  H          -1.765617            -3.529473            -7.212944            1             0.402573    [1[8[6]]]                                                   
  H          -3.324037            -5.370341            -8.616925            1             0.031932    [1[6[8][1][1]]]                                             
  H          -1.589571            -5.589738            -8.198997            1             0.031932    [1[6[8][1][1]]]                                             
  H          -2.937698            -5.591596            -7.043664            1             0.031932    [1[6[8][1][1]]]                                             
