12

  C          -9.910332            -1.444865             6.681377            0             0.099454    [6[8[1]][1][1][1]]                                          
  O          -8.594593            -1.476581             6.114144            0            -0.597823    [8[6[1][1][1]][1]]                                          
  H          -8.607450            -1.391479             5.132857            0             0.402573    [1[8[6]]]                                                   
  H          -10.341876           -0.439712             6.581889            0             0.031932    [1[6[8][1][1]]]                                             
  H          -10.615634           -2.049773             6.122155            0             0.031932    [1[6[8][1][1]]]                                             
  H          -9.973743            -1.727062             7.796625            0             0.031932    [1[6[8][1][1]]]                                             
  C          -8.079207            -0.059697             2.949538            1             0.099454    [6[8[1]][1][1][1]]                                          
  O          -8.988258            -1.094513             3.218330            1            -0.597823    [8[6[1][1][1]][1]]                                          
  H          -8.783579            -1.953334             2.747775            1             0.402573    [1[8[6]]]                                                   
  H          -8.594162             0.865862             2.879644            1             0.031932    [1[6[8][1][1]]]                                             
  H          -7.270703            -0.020806             3.750577            1             0.031932    [1[6[8][1][1]]]                                             
  H          -7.479597            -0.297339             2.024800            1             0.031932    [1[6[8][1][1]]]                                             
