12

  C           3.523408            -5.923778             2.070169            0             0.099454    [6[8[1]][1][1][1]]                                          
  O           3.834441            -4.576411             1.836301            0            -0.597823    [8[6[1][1][1]][1]]                                          
  H           4.763971            -4.562166             1.509061            0             0.402573    [1[8[6]]]                                                   
  H           2.729272            -5.991882             2.856450            0             0.031932    [1[6[8][1][1]]]                                             
  H           3.330591            -6.484672             1.252621            0             0.031932    [1[6[8][1][1]]]                                             
  H           4.446997            -6.457884             2.510366            0             0.031932    [1[6[8][1][1]]]                                             
  C           6.493591            -7.114689             5.665414            1             0.099454    [6[8[1]][1][1][1]]                                          
  O           7.749158            -7.200561             5.023627            1            -0.597823    [8[6[1][1][1]][1]]                                          
  H           8.417499            -7.256658             5.702624            1             0.402573    [1[8[6]]]                                                   
  H           6.411173            -7.828988             6.442911            1             0.031932    [1[6[8][1][1]]]                                             
  H           6.322881            -6.124128             6.161306            1             0.031932    [1[6[8][1][1]]]                                             
  H           5.695959            -7.314876             5.013645            1             0.031932    [1[6[8][1][1]]]                                             
