12

  C          -4.797981             5.631424            -2.623240            0             0.099454    [6[8[1]][1][1][1]]                                          
  O          -5.237484             5.394242            -4.010165            0            -0.597823    [8[6[1][1][1]][1]]                                          
  H          -5.022059             6.181057            -4.583868            0             0.402573    [1[8[6]]]                                                   
  H          -3.706506             5.559531            -2.455493            0             0.031932    [1[6[8][1][1]]]                                             
  H          -5.119891             6.579351            -2.201764            0             0.031932    [1[6[8][1][1]]]                                             
  H          -5.126361             4.857216            -1.992728            0             0.031932    [1[6[8][1][1]]]                                             
  C          -4.889492             5.088213            -7.807620            1             0.099454    [6[8[1]][1][1][1]]                                          
  O          -5.284673             6.187908            -6.949680            1            -0.597823    [8[6[1][1][1]][1]]                                          
  H          -4.981875             6.985051            -7.422708            1             0.402573    [1[8[6]]]                                                   
  H          -5.218055             5.066944            -8.850541            1             0.031932    [1[6[8][1][1]]]                                             
  H          -3.803294             5.005692            -7.858541            1             0.031932    [1[6[8][1][1]]]                                             
  H          -5.186663             4.075918            -7.382525            1             0.031932    [1[6[8][1][1]]]                                             
