12

  C           0.886549             0.822237             10.406532           0             0.099454    [6[8[1]][1][1][1]]                                          
  O          -0.359793             0.971877             9.692236            0            -0.597823    [8[6[1][1][1]][1]]                                          
  H          -0.550626             0.048280             9.716713            0             0.402573    [1[8[6]]]                                                   
  H           1.518922             1.710716             10.116938           0             0.031932    [1[6[8][1][1]]]                                             
  H           0.664286             0.723875             11.450918           0             0.031932    [1[6[8][1][1]]]                                             
  H           1.397309            -0.146132             10.165140           0             0.031932    [1[6[8][1][1]]]                                             
  C           5.262110            -1.486866             11.091563           1             0.099454    [6[8[1]][1][1][1]]                                          
  O           4.170420            -2.310943             11.136274           1            -0.597823    [8[6[1][1][1]][1]]                                          
  H           4.160591            -2.782107             10.353779           1             0.402573    [1[8[6]]]                                                   
  H           6.141356            -2.132353             11.097841           1             0.031932    [1[6[8][1][1]]]                                             
  H           5.284140            -0.796770             10.273896           1             0.031932    [1[6[8][1][1]]]                                             
  H           5.331895            -0.844729             11.976190           1             0.031932    [1[6[8][1][1]]]                                             
