12

  C           8.304697             0.773642            -7.879795            0             0.099454    [6[8[1]][1][1][1]]                                          
  O           7.697569            -0.052126            -8.879199            0            -0.597823    [8[6[1][1][1]][1]]                                          
  H           7.046114            -0.492704            -8.416586            0             0.402573    [1[8[6]]]                                                   
  H           8.728058             0.224718            -7.058519            0             0.031932    [1[6[8][1][1]]]                                             
  H           9.138744             1.205424            -8.296531            0             0.031932    [1[6[8][1][1]]]                                             
  H           7.608282             1.530593            -7.478363            0             0.031932    [1[6[8][1][1]]]                                             
  C           4.293375             1.042256            -8.567956            1             0.099454    [6[8[1]][1][1][1]]                                          
  O           3.206793             1.745476            -9.168027            1            -0.597823    [8[6[1][1][1]][1]]                                          
  H           2.373809             1.405135            -8.839542            1             0.402573    [1[8[6]]]                                                   
  H           4.153393            -0.071177            -8.618395            1             0.031932    [1[6[8][1][1]]]                                             
  H           5.216379             1.289821            -9.122041            1             0.031932    [1[6[8][1][1]]]                                             
  H           4.380283             1.258665            -7.539011            1             0.031932    [1[6[8][1][1]]]                                             
