12

  C          -6.890285            -0.651512            -6.912674            0             0.099454    [6[8[1]][1][1][1]]                                          
  O          -7.229241            -1.200924            -5.604162            0            -0.597823    [8[6[1][1][1]][1]]                                          
  H          -8.080898            -1.626156            -5.709926            0             0.402573    [1[8[6]]]                                                   
  H          -6.749683            -1.458813            -7.604666            0             0.031932    [1[6[8][1][1]]]                                             
  H          -7.653449             0.054767            -7.336818            0             0.031932    [1[6[8][1][1]]]                                             
  H          -5.976611            -0.051108            -6.957047            0             0.031932    [1[6[8][1][1]]]                                             
  C          -10.601700           -1.340153            -6.515866            1             0.099454    [6[8[1]][1][1][1]]                                          
  O          -9.853865            -2.173804            -5.554064            1            -0.597823    [8[6[1][1][1]][1]]                                          
  H          -10.156461           -2.016928            -4.673614            1             0.402573    [1[8[6]]]                                                   
  H          -10.217419           -0.365535            -6.397053            1             0.031932    [1[6[8][1][1]]]                                             
  H          -10.391301           -1.669020            -7.565933            1             0.031932    [1[6[8][1][1]]]                                             
  H          -11.635919           -1.467223            -6.354808            1             0.031932    [1[6[8][1][1]]]                                             
