12

  C           7.285926             0.821066             2.316241            0             0.099454    [6[8[1]][1][1][1]]                                          
  O           7.532912             0.471736             1.007627            0            -0.597823    [8[6[1][1][1]][1]]                                          
  H           8.045949            -0.406475             0.930814            0             0.402573    [1[8[6]]]                                                   
  H           7.486048            -0.087081             3.004934            0             0.031932    [1[6[8][1][1]]]                                             
  H           7.841240             1.695538             2.765298            0             0.031932    [1[6[8][1][1]]]                                             
  H           6.188296             0.937388             2.320612            0             0.031932    [1[6[8][1][1]]]                                             
  C           4.789831             4.842195             4.673636            1             0.099454    [6[8[1]][1][1][1]]                                          
  O           4.834256             4.522513             3.376665            1            -0.597823    [8[6[1][1][1]][1]]                                          
  H           5.779525             4.363818             3.227645            1             0.402573    [1[8[6]]]                                                   
  H           3.778847             5.077454             4.981349            1             0.031932    [1[6[8][1][1]]]                                             
  H           5.025754             4.006608             5.322962            1             0.031932    [1[6[8][1][1]]]                                             
  H           5.505143             5.687903             4.910589            1             0.031932    [1[6[8][1][1]]]                                             
