12

  C          -3.318311            -0.619609            -4.975786            0             0.099454    [6[8[1]][1][1][1]]                                          
  O          -2.848868            -0.188945            -3.711665            0            -0.597823    [8[6[1][1][1]][1]]                                          
  H          -2.709265             0.711760            -3.772373            0             0.402573    [1[8[6]]]                                                   
  H          -2.662649            -0.195860            -5.703031            0             0.031932    [1[6[8][1][1]]]                                             
  H          -3.228268            -1.702189            -5.124246            0             0.031932    [1[6[8][1][1]]]                                             
  H          -4.392851            -0.308560            -5.145854            0             0.031932    [1[6[8][1][1]]]                                             
  C          -0.727275             1.563052            -0.967298            1             0.099454    [6[8[1]][1][1][1]]                                          
  O           0.096966             0.363734            -0.938946            1            -0.597823    [8[6[1][1][1]][1]]                                          
  H           0.008853            -0.073685            -1.808591            1             0.402573    [1[8[6]]]                                                   
  H          -1.797823             1.336049            -1.111129            1             0.031932    [1[6[8][1][1]]]                                             
  H          -0.641607             2.169287            -0.038777            1             0.031932    [1[6[8][1][1]]]                                             
  H          -0.399857             2.277220            -1.734787            1             0.031932    [1[6[8][1][1]]]                                             
