12

  C           2.808889             0.844054            -8.414163            0             0.099454    [6[8[1]][1][1][1]]                                          
  O           2.751306            -0.322919            -7.643315            0            -0.597823    [8[6[1][1][1]][1]]                                          
  H           2.321928            -0.062151            -6.767259            0             0.402573    [1[8[6]]]                                                   
  H           3.391022             0.885911            -9.374107            0             0.031932    [1[6[8][1][1]]]                                             
  H           1.750066             0.987597            -8.760820            0             0.031932    [1[6[8][1][1]]]                                             
  H           3.044555             1.683032            -7.747926            0             0.031932    [1[6[8][1][1]]]                                             
  C          -2.118689             0.321967            -9.233789            1             0.099454    [6[8[1]][1][1][1]]                                          
  O          -0.686353             0.207449            -9.084393            1            -0.597823    [8[6[1][1][1]][1]]                                          
  H          -0.339038            -0.012212            -9.988232            1             0.402573    [1[8[6]]]                                                   
  H          -2.415583             0.895879            -10.122930           1             0.031932    [1[6[8][1][1]]]                                             
  H          -2.525093            -0.664378            -9.362829            1             0.031932    [1[6[8][1][1]]]                                             
  H          -2.652580             0.790706            -8.397814            1             0.031932    [1[6[8][1][1]]]                                             
