12

  C          -1.179622            -0.680025             6.462159            0             0.099454    [6[8[1]][1][1][1]]                                          
  O          -1.994517             0.038928             7.405688            0            -0.597823    [8[6[1][1][1]][1]]                                          
  H          -2.109912             0.907878             7.079844            0             0.402573    [1[8[6]]]                                                   
  H          -0.109920            -0.503745             6.727623            0             0.031932    [1[6[8][1][1]]]                                             
  H          -1.354234            -1.756892             6.522703            0             0.031932    [1[6[8][1][1]]]                                             
  H          -1.366128            -0.313220             5.402350            0             0.031932    [1[6[8][1][1]]]                                             
  C           0.065464            -4.211763             3.544082            1             0.099454    [6[8[1]][1][1][1]]                                          
  O           0.811758            -3.591508             4.520244            1            -0.597823    [8[6[1][1][1]][1]]                                          
  H           1.119619            -4.270361             5.134675            1             0.402573    [1[8[6]]]                                                   
  H           0.671421            -4.857393             3.010172            1             0.031932    [1[6[8][1][1]]]                                             
  H          -0.768815            -4.826459             3.971872            1             0.031932    [1[6[8][1][1]]]                                             
  H          -0.362003            -3.489783             2.859465            1             0.031932    [1[6[8][1][1]]]                                             
