12

  C           5.369477            -6.342536            -0.441178            0             0.099454    [6[8[1]][1][1][1]]                                          
  O           5.334754            -5.019816             0.209316            0            -0.597823    [8[6[1][1][1]][1]]                                          
  H           4.689948            -4.385982            -0.258636            0             0.402573    [1[8[6]]]                                                   
  H           5.435570            -7.157379             0.285672            0             0.031932    [1[6[8][1][1]]]                                             
  H           4.490291            -6.557346            -0.960870            0             0.031932    [1[6[8][1][1]]]                                             
  H           6.075459            -6.414477            -1.304671            0             0.031932    [1[6[8][1][1]]]                                             
  C           9.179188            -2.296258            -1.378937            1             0.099454    [6[8[1]][1][1][1]]                                          
  O           9.126528            -3.730062            -1.614299            1            -0.597823    [8[6[1][1][1]][1]]                                          
  H           9.780172            -4.125602            -1.001933            1             0.402573    [1[8[6]]]                                                   
  H           10.076277           -2.135125            -0.877923            1             0.031932    [1[6[8][1][1]]]                                             
  H           9.117740            -1.750285            -2.323667            1             0.031932    [1[6[8][1][1]]]                                             
  H           8.413924            -1.920282            -0.682767            1             0.031932    [1[6[8][1][1]]]                                             
