12

  C          -6.355175             4.803348            -0.633554            0             0.099454    [6[8[1]][1][1][1]]                                          
  O          -6.165207             4.170899             0.606047            0            -0.597823    [8[6[1][1][1]][1]]                                          
  H          -6.825564             3.483296             0.638373            0             0.402573    [1[8[6]]]                                                   
  H          -7.380405             5.187809            -0.791474            0             0.031932    [1[6[8][1][1]]]                                             
  H          -5.628031             5.602576            -0.976239            0             0.031932    [1[6[8][1][1]]]                                             
  H          -6.191720             4.108695            -1.435763            0             0.031932    [1[6[8][1][1]]]                                             
  C          -4.976401             0.858105            -1.008490            1             0.099454    [6[8[1]][1][1][1]]                                          
  O          -6.288005             0.928399            -0.574650            1            -0.597823    [8[6[1][1][1]][1]]                                          
  H          -6.440537             0.206410             0.015058            1             0.402573    [1[8[6]]]                                                   
  H          -4.691179            -0.199261            -1.167981            1             0.031932    [1[6[8][1][1]]]                                             
  H          -4.900961             1.486722            -1.938916            1             0.031932    [1[6[8][1][1]]]                                             
  H          -4.357864             1.263733            -0.209785            1             0.031932    [1[6[8][1][1]]]                                             
