12

  C           6.644204            -5.381908             9.413953            0             0.099454    [6[8[1]][1][1][1]]                                          
  O           6.052512            -6.076243             8.369976            0            -0.597823    [8[6[1][1][1]][1]]                                          
  H           6.674226            -6.664635             7.970221            0             0.402573    [1[8[6]]]                                                   
  H           5.870115            -4.708260             9.921547            0             0.031932    [1[6[8][1][1]]]                                             
  H           6.957315            -6.125516             10.130067           0             0.031932    [1[6[8][1][1]]]                                             
  H           7.387805            -4.639974             9.029258            0             0.031932    [1[6[8][1][1]]]                                             
  C           2.496917            -9.634024             9.265554            1             0.099454    [6[8[1]][1][1][1]]                                          
  O           3.478217            -8.742918             9.862142            1            -0.597823    [8[6[1][1][1]][1]]                                          
  H           4.276575            -9.260604             9.940840            1             0.402573    [1[8[6]]]                                                   
  H           2.737389            -10.333954            8.432188            1             0.031932    [1[6[8][1][1]]]                                             
  H           2.138548            -10.299985            10.088730           1             0.031932    [1[6[8][1][1]]]                                             
  H           1.627080            -9.114252             8.914468            1             0.031932    [1[6[8][1][1]]]                                             
