12

  C           8.949076            -5.978823             1.374421            0             0.099454    [6[8[1]][1][1][1]]                                          
  O           8.061541            -5.195316             2.119433            0            -0.597823    [8[6[1][1][1]][1]]                                          
  H           7.149420            -5.531842             2.087189            0             0.402573    [1[8[6]]]                                                   
  H           8.545516            -6.842409             0.887766            0             0.031932    [1[6[8][1][1]]]                                             
  H           9.373425            -5.345801             0.537664            0             0.031932    [1[6[8][1][1]]]                                             
  H           9.797121            -6.359743             1.900939            0             0.031932    [1[6[8][1][1]]]                                             
  C           10.372420           -1.240965             1.031250            1             0.099454    [6[8[1]][1][1][1]]                                          
  O           9.106789            -1.706658             0.669146            1            -0.597823    [8[6[1][1][1]][1]]                                          
  H           8.483005            -1.010757             0.932490            1             0.402573    [1[8[6]]]                                                   
  H           11.044055           -1.040316             0.125989            1             0.031932    [1[6[8][1][1]]]                                             
  H           10.309781           -0.262270             1.502781            1             0.031932    [1[6[8][1][1]]]                                             
  H           10.820888           -1.962031             1.699189            1             0.031932    [1[6[8][1][1]]]                                             
