12

  C           5.509219            -5.286384            -2.629828            0             0.099454    [6[8[1]][1][1][1]]                                          
  O           6.356411            -4.322206            -3.312786            0            -0.597823    [8[6[1][1][1]][1]]                                          
  H           5.806492            -3.659072            -3.753185            0             0.402573    [1[8[6]]]                                                   
  H           4.710320            -5.785805            -3.279945            0             0.031932    [1[6[8][1][1]]]                                             
  H           6.199272            -6.152955            -2.356879            0             0.031932    [1[6[8][1][1]]]                                             
  H           4.910016            -4.863904            -1.771712            0             0.031932    [1[6[8][1][1]]]                                             
  C           9.438727            -3.721648            -1.851638            1             0.099454    [6[8[1]][1][1][1]]                                          
  O           8.377869            -4.468286            -1.328289            1            -0.597823    [8[6[1][1][1]][1]]                                          
  H           7.640629            -4.403030            -1.935555            1             0.402573    [1[8[6]]]                                                   
  H           10.381033           -4.210170            -1.827291            1             0.031932    [1[6[8][1][1]]]                                             
  H           9.213643            -3.395265            -2.855643            1             0.031932    [1[6[8][1][1]]]                                             
  H           9.658459            -2.751230            -1.291551            1             0.031932    [1[6[8][1][1]]]                                             
