12

  C          -2.909087            -1.969851            -1.924038            0             0.099454    [6[8[1]][1][1][1]]                                          
  O          -2.827686            -3.108893            -1.172780            0            -0.597823    [8[6[1][1][1]][1]]                                          
  H          -1.951877            -3.521882            -1.234771            0             0.402573    [1[8[6]]]                                                   
  H          -2.236090            -1.175061            -1.514189            0             0.031932    [1[6[8][1][1]]]                                             
  H          -2.615819            -2.207722            -2.943105            0             0.031932    [1[6[8][1][1]]]                                             
  H          -3.949701            -1.615946            -1.922414            0             0.031932    [1[6[8][1][1]]]                                             
  C          -1.039465            -5.980408            -0.633928            1             0.099454    [6[8[1]][1][1][1]]                                          
  O          -0.525125            -4.704031            -0.958731            1            -0.597823    [8[6[1][1][1]][1]]                                          
  H           0.396405            -4.876705            -1.164711            1             0.402573    [1[8[6]]]                                                   
  H          -0.893255            -6.150147             0.412700            1             0.031932    [1[6[8][1][1]]]                                             
  H          -2.104369            -6.036551            -0.840206            1             0.031932    [1[6[8][1][1]]]                                             
  H          -0.600930            -6.805543            -1.238624            1             0.031932    [1[6[8][1][1]]]                                             
