12

  C          -7.477111            -4.456450            -6.946488            0             0.099454    [6[8[1]][1][1][1]]                                          
  O          -7.988286            -4.822817            -5.665183            0            -0.597823    [8[6[1][1][1]][1]]                                          
  H          -7.892709            -4.108142            -5.012299            0             0.402573    [1[8[6]]]                                                   
  H          -6.388501            -4.259669            -7.003349            0             0.031932    [1[6[8][1][1]]]                                             
  H          -7.612256            -5.270702            -7.671501            0             0.031932    [1[6[8][1][1]]]                                             
  H          -7.996882            -3.590406            -7.298455            0             0.031932    [1[6[8][1][1]]]                                             
  C          -3.808574            -2.865597            -3.912877            1             0.099454    [6[8[1]][1][1][1]]                                          
  O          -5.088948            -2.779502            -3.379765            1            -0.597823    [8[6[1][1][1]][1]]                                          
  H          -5.243762            -3.512747            -2.820870            1             0.402573    [1[8[6]]]                                                   
  H          -3.708712            -2.261601            -4.794589            1             0.031932    [1[6[8][1][1]]]                                             
  H          -2.979680            -2.555492            -3.204969            1             0.031932    [1[6[8][1][1]]]                                             
  H          -3.569196            -3.920728            -4.166138            1             0.031932    [1[6[8][1][1]]]                                             
