12

  C           6.543165             8.326145            -10.416435           0             0.099454    [6[8[1]][1][1][1]]                                          
  O           6.659908             7.253888            -9.509501            0            -0.597823    [8[6[1][1][1]][1]]                                          
  H           5.909592             7.446161            -8.983774            0             0.402573    [1[8[6]]]                                                   
  H           6.614220             9.393741            -10.016194           0             0.031932    [1[6[8][1][1]]]                                             
  H           7.383919             8.321079            -11.080022           0             0.031932    [1[6[8][1][1]]]                                             
  H           5.626030             8.221112            -11.046252           0             0.031932    [1[6[8][1][1]]]                                             
  C           3.449128             6.099707            -9.268008            1             0.099454    [6[8[1]][1][1][1]]                                          
  O           3.715254             7.381216            -8.754075            1            -0.597823    [8[6[1][1][1]][1]]                                          
  H           3.174861             7.998852            -9.234291            1             0.402573    [1[8[6]]]                                                   
  H           2.370180             6.092043            -9.558318            1             0.031932    [1[6[8][1][1]]]                                             
  H           4.053126             5.910683            -10.113181           1             0.031932    [1[6[8][1][1]]]                                             
  H           3.617349             5.368461            -8.500939            1             0.031932    [1[6[8][1][1]]]                                             
