12

  C          -3.541612             8.218738            -6.097579            0             0.099454    [6[8[1]][1][1][1]]                                          
  O          -2.500026             7.841059            -5.165467            0            -0.597823    [8[6[1][1][1]][1]]                                          
  H          -2.808424             8.091062            -4.276652            0             0.402573    [1[8[6]]]                                                   
  H          -4.504519             8.175344            -5.636522            0             0.031932    [1[6[8][1][1]]]                                             
  H          -3.270904             9.255707            -6.480989            0             0.031932    [1[6[8][1][1]]]                                             
  H          -3.586497             7.616042            -6.948879            0             0.031932    [1[6[8][1][1]]]                                             
  C          -7.360046             7.106617            -6.792917            1             0.099454    [6[8[1]][1][1][1]]                                          
  O          -6.498099             6.228392            -7.526867            1            -0.597823    [8[6[1][1][1]][1]]                                          
  H          -6.779358             5.342378            -7.266171            1             0.402573    [1[8[6]]]                                                   
  H          -7.479947             8.148388            -7.126850            1             0.031932    [1[6[8][1][1]]]                                             
  H          -8.260560             6.529696            -6.851699            1             0.031932    [1[6[8][1][1]]]                                             
  H          -7.000143             7.184007            -5.732038            1             0.031932    [1[6[8][1][1]]]                                             
