12

  C          -7.175575             2.102630            -1.137737            0             0.099454    [6[8[1]][1][1][1]]                                          
  O          -6.360811             1.215459            -1.860402            0            -0.597823    [8[6[1][1][1]][1]]                                          
  H          -6.884850             0.520628            -2.253676            0             0.402573    [1[8[6]]]                                                   
  H          -7.351709             3.163128            -1.493092            0             0.031932    [1[6[8][1][1]]]                                             
  H          -8.215641             1.709698            -1.142995            0             0.031932    [1[6[8][1][1]]]                                             
  H          -6.928180             2.110446            -0.125712            0             0.031932    [1[6[8][1][1]]]                                             
  C          -11.498191            0.332959            -2.534672            1             0.099454    [6[8[1]][1][1][1]]                                          
  O          -10.465771            0.340394            -1.495334            1            -0.597823    [8[6[1][1][1]][1]]                                          
  H          -9.672589             0.001968            -1.864061            1             0.402573    [1[8[6]]]                                                   
  H          -11.464644           -0.542244            -3.210713            1             0.031932    [1[6[8][1][1]]]                                             
  H          -12.495292            0.402588            -2.186097            1             0.031932    [1[6[8][1][1]]]                                             
  H          -11.293024            1.253113            -3.139033            1             0.031932    [1[6[8][1][1]]]                                             
