12

  C           4.420336            -3.631376             1.742753            0             0.099454    [6[8[1]][1][1][1]]                                          
  O           3.162538            -4.207617             1.389367            0            -0.597823    [8[6[1][1][1]][1]]                                          
  H           2.908502            -4.657569             2.203867            0             0.402573    [1[8[6]]]                                                   
  H           4.810058            -2.966194             0.971924            0             0.031932    [1[6[8][1][1]]]                                             
  H           4.419981            -3.156620             2.638260            0             0.031932    [1[6[8][1][1]]]                                             
  H           5.257324            -4.385752             1.882703            0             0.031932    [1[6[8][1][1]]]                                             
  C           10.087443           -2.550923             2.362808            1             0.099454    [6[8[1]][1][1][1]]                                          
  O           10.738613           -3.062770             3.466789            1            -0.597823    [8[6[1][1][1]][1]]                                          
  H           11.658350           -2.744216             3.419616            1             0.402573    [1[8[6]]]                                                   
  H           9.194699            -3.126496             2.268164            1             0.031932    [1[6[8][1][1]]]                                             
  H           9.782305            -1.492335             2.515817            1             0.031932    [1[6[8][1][1]]]                                             
  H           10.701467           -2.595915             1.475254            1             0.031932    [1[6[8][1][1]]]                                             
