12

  C           1.790265             3.458561             8.299905            0             0.099454    [6[8[1]][1][1][1]]                                          
  O           0.760315             4.348827             7.951540            0            -0.597823    [8[6[1][1][1]][1]]                                          
  H           0.700689             4.320397             6.985783            0             0.402573    [1[8[6]]]                                                   
  H           2.747720             4.048782             8.453165            0             0.031932    [1[6[8][1][1]]]                                             
  H           1.540345             2.807398             9.173545            0             0.031932    [1[6[8][1][1]]]                                             
  H           2.017215             2.823354             7.489023            0             0.031932    [1[6[8][1][1]]]                                             
  C          -2.472019             6.718270             9.838577            1             0.099454    [6[8[1]][1][1][1]]                                          
  O          -3.128777             6.038836             10.865620           1            -0.597823    [8[6[1][1][1]][1]]                                          
  H          -2.541078             5.623681             11.411225           1             0.402573    [1[8[6]]]                                                   
  H          -2.944758             7.683144             9.612910            1             0.031932    [1[6[8][1][1]]]                                             
  H          -1.430267             6.842742             10.183854           1             0.031932    [1[6[8][1][1]]]                                             
  H          -2.344871             6.126323             8.908435            1             0.031932    [1[6[8][1][1]]]                                             
