12

  C           5.079205             10.088721            1.155748            0             0.099454    [6[8[1]][1][1][1]]                                          
  O           4.727494             10.801788           -0.003881            0            -0.597823    [8[6[1][1][1]][1]]                                          
  H           5.357990             11.570185           -0.053049            0             0.402573    [1[8[6]]]                                                   
  H           4.991311             9.059950             0.974332            0             0.031932    [1[6[8][1][1]]]                                             
  H           6.151954             10.261616            1.523012            0             0.031932    [1[6[8][1][1]]]                                             
  H           4.377701             10.170308            2.005355            0             0.031932    [1[6[8][1][1]]]                                             
  C           8.731289             11.229532           -2.875286            1             0.099454    [6[8[1]][1][1][1]]                                          
  O           7.314470             11.463683           -2.924470            1            -0.597823    [8[6[1][1][1]][1]]                                          
  H           6.838119             10.783308           -3.419614            1             0.402573    [1[8[6]]]                                                   
  H           8.907719             10.207985           -2.506736            1             0.031932    [1[6[8][1][1]]]                                             
  H           9.225511             11.278878           -3.791571            1             0.031932    [1[6[8][1][1]]]                                             
  H           9.287927             11.966581           -2.234232            1             0.031932    [1[6[8][1][1]]]                                             
