12

  C          -6.273322            -9.533329            -8.368384            0             0.099454    [6[8[1]][1][1][1]]                                          
  O          -7.523562            -10.051300           -8.014050            0            -0.597823    [8[6[1][1][1]][1]]                                          
  H          -8.078851            -9.952586            -8.778788            0             0.402573    [1[8[6]]]                                                   
  H          -5.871098            -8.781854            -7.648397            0             0.031932    [1[6[8][1][1]]]                                             
  H          -5.513111            -10.350072           -8.413968            0             0.031932    [1[6[8][1][1]]]                                             
  H          -6.238926            -9.095729            -9.396470            0             0.031932    [1[6[8][1][1]]]                                             
  C          -9.802897            -8.642307            -10.382443           1             0.099454    [6[8[1]][1][1][1]]                                          
  O          -9.020798            -9.753919            -10.557155           1            -0.597823    [8[6[1][1][1]][1]]                                          
  H          -9.596838            -10.495844           -10.632737           1             0.402573    [1[8[6]]]                                                   
  H          -9.158925            -7.789647            -10.218208           1             0.031932    [1[6[8][1][1]]]                                             
  H          -10.388234           -8.420589            -11.125207           1             0.031932    [1[6[8][1][1]]]                                             
  H          -10.366768           -8.786615            -9.508903            1             0.031932    [1[6[8][1][1]]]                                             
