15

C  1.43280000           0.47750000           1.14150000         
C  2.84890000           0.25690000           0.63400000         
C  3.21100000           1.25220000          -0.46830000         
C  4.63509000           1.02689000          -0.97551000         
C  4.97721000           1.98583000          -2.03417000         
N  5.24969000           2.74248000          -2.87082000         
H  1.19570000          -0.24500000           1.92870000         
H  0.70290000           0.35310000           0.33520000         
H  1.31760000           1.48340000           1.55760000         
H  2.93880000          -0.76750000           0.25420000         
H  3.55030000           0.35580000           1.47060000         
H  3.11060000           2.27680000          -0.08750000         
H  2.50100000           1.15450000          -1.29970000         
H  4.73550000           0.00610000          -1.36210000         
H  5.34550000           1.12880000          -0.14690000         
