12

  C           6.823729             6.653392             4.663200            0             0.099454    [6[8[1]][1][1][1]]                                          
  O           5.853408             7.293050             3.735871            0            -0.597823    [8[6[1][1][1]][1]]                                          
  H           5.958699             6.875321             2.844677            0             0.402573    [1[8[6]]]                                                   
  H           6.405214             6.361899             5.666741            0             0.031932    [1[6[8][1][1]]]                                             
  H           7.327214             5.758224             4.307533            0             0.031932    [1[6[8][1][1]]]                                             
  H           7.632612             7.335827             4.701187            0             0.031932    [1[6[8][1][1]]]                                             
  C           5.516910             4.798344             0.486500            1             0.099454    [6[8[1]][1][1][1]]                                          
  O           5.933246             5.897615             1.108298            1            -0.597823    [8[6[1][1][1]][1]]                                          
  H           6.394821             6.479765             0.481301            1             0.402573    [1[8[6]]]                                                   
  H           4.789262             4.296935             1.139114            1             0.031932    [1[6[8][1][1]]]                                             
  H           4.936789             4.924250            -0.411263            1             0.031932    [1[6[8][1][1]]]                                             
  H           6.246772             4.066543             0.165103            1             0.031932    [1[6[8][1][1]]]                                             
