12

  C           0.659082             8.615269            -3.643497            0             0.099454    [6[8[1]][1][1][1]]                                          
  O           0.571755             9.841283            -3.042450            0            -0.597823    [8[6[1][1][1]][1]]                                          
  H           0.633439             10.539445           -3.712564            0             0.402573    [1[8[6]]]                                                   
  H           1.490287             8.549697            -4.355124            0             0.031932    [1[6[8][1][1]]]                                             
  H           0.762765             7.880298            -2.852222            0             0.031932    [1[6[8][1][1]]]                                             
  H          -0.254403             8.351689            -4.285406            0             0.031932    [1[6[8][1][1]]]                                             
  C          -3.434642             10.098755           -2.541995            1             0.099454    [6[8[1]][1][1][1]]                                          
  O          -2.486791             9.020784            -2.459724            1            -0.597823    [8[6[1][1][1]][1]]                                          
  H          -1.622324             9.363562            -2.421603            1             0.402573    [1[8[6]]]                                                   
  H          -4.241317             9.969688            -1.871554            1             0.031932    [1[6[8][1][1]]]                                             
  H          -2.977795             11.011380           -2.118214            1             0.031932    [1[6[8][1][1]]]                                             
  H          -3.871249             10.220332           -3.510029            1             0.031932    [1[6[8][1][1]]]                                             
