12

  C           8.306979            -1.199292            -5.182348            0             0.099454    [6[8[1]][1][1][1]]                                          
  O           7.537905            -1.703815            -6.246899            0            -0.597823    [8[6[1][1][1]][1]]                                          
  H           7.832907            -1.390369            -7.097220            0             0.402573    [1[8[6]]]                                                   
  H           8.184739            -0.143854            -5.200148            0             0.031932    [1[6[8][1][1]]]                                             
  H           8.096430            -1.585496            -4.205000            0             0.031932    [1[6[8][1][1]]]                                             
  H           9.355720            -1.370345            -5.333518            0             0.031932    [1[6[8][1][1]]]                                             
  C           6.424644             0.249695            -3.087599            1             0.099454    [6[8[1]][1][1][1]]                                          
  O           5.605370             0.999326            -4.013546            1            -0.597823    [8[6[1][1][1]][1]]                                          
  H           5.486739             1.888098            -3.695304            1             0.402573    [1[8[6]]]                                                   
  H           7.473081             0.469245            -3.089258            1             0.031932    [1[6[8][1][1]]]                                             
  H           6.142132             0.441381            -2.008885            1             0.031932    [1[6[8][1][1]]]                                             
  H           6.478099            -0.831879            -3.366217            1             0.031932    [1[6[8][1][1]]]                                             
