12

  C           5.213601            -6.424230             1.445439            0             0.099454    [6[8[1]][1][1][1]]                                          
  O           5.630218            -5.208946             2.075847            0            -0.597823    [8[6[1][1][1]][1]]                                          
  H           5.563530            -4.576802             1.354313            0             0.402573    [1[8[6]]]                                                   
  H           5.329758            -7.331916             2.140380            0             0.031932    [1[6[8][1][1]]]                                             
  H           4.144093            -6.377885             1.182249            0             0.031932    [1[6[8][1][1]]]                                             
  H           5.866397            -6.714165             0.524728            0             0.031932    [1[6[8][1][1]]]                                             
  C           6.033957            -10.040960            0.439146            1             0.099454    [6[8[1]][1][1][1]]                                          
  O           4.648566            -9.788092             0.371548            1            -0.597823    [8[6[1][1][1]][1]]                                          
  H           4.175144            -10.434468           -0.130946            1             0.402573    [1[8[6]]]                                                   
  H           6.302468            -11.026667            0.090324            1             0.031932    [1[6[8][1][1]]]                                             
  H           6.583491            -9.332504            -0.111845            1             0.031932    [1[6[8][1][1]]]                                             
  H           6.473931            -9.954549             1.446848            1             0.031932    [1[6[8][1][1]]]                                             
