12

  C           4.180246            -6.573666            -8.471970            0             0.099454    [6[8[1]][1][1][1]]                                          
  O           2.944726            -6.901383            -9.159315            0            -0.597823    [8[6[1][1][1]][1]]                                          
  H           3.085003            -7.681904            -9.739053            0             0.402573    [1[8[6]]]                                                   
  H           4.377355            -7.204472            -7.586922            0             0.031932    [1[6[8][1][1]]]                                             
  H           5.073206            -6.648378            -9.126589            0             0.031932    [1[6[8][1][1]]]                                             
  H           4.046918            -5.525643            -8.101337            0             0.031932    [1[6[8][1][1]]]                                             
  C           0.171370            -6.179703            -10.431509           1             0.099454    [6[8[1]][1][1][1]]                                          
  O           1.142132            -5.175197            -10.135115           1            -0.597823    [8[6[1][1][1]][1]]                                          
  H           1.735514            -5.546216            -9.420963            1             0.402573    [1[8[6]]]                                                   
  H          -0.204759            -6.525148            -9.511910            1             0.031932    [1[6[8][1][1]]]                                             
  H          -0.697941            -5.767374            -11.072162           1             0.031932    [1[6[8][1][1]]]                                             
  H           0.616042            -7.055987            -10.972377           1             0.031932    [1[6[8][1][1]]]                                             
