12

  C           9.200212            -0.043180            -9.565434            0             0.099454    [6[8[1]][1][1][1]]                                          
  O           9.554774            -1.096549            -10.437954           0            -0.597823    [8[6[1][1][1]][1]]                                          
  H           8.810074            -1.397216            -10.963282           0             0.402573    [1[8[6]]]                                                   
  H           8.999381             0.938435            -10.111305           0             0.031932    [1[6[8][1][1]]]                                             
  H           8.186143            -0.271036            -9.063142            0             0.031932    [1[6[8][1][1]]]                                             
  H           9.978247             0.232531            -8.802907            0             0.031932    [1[6[8][1][1]]]                                             
  C           11.544669           -3.345478            -10.102156           1             0.099454    [6[8[1]][1][1][1]]                                          
  O           10.883767           -2.931228            -8.923766            1            -0.597823    [8[6[1][1][1]][1]]                                          
  H           11.462142           -2.790318            -8.181137            1             0.402573    [1[8[6]]]                                                   
  H           10.835078           -3.253117            -10.951907           1             0.031932    [1[6[8][1][1]]]                                             
  H           12.494490           -2.843856            -10.328078           1             0.031932    [1[6[8][1][1]]]                                             
  H           11.796707           -4.402151            -10.094575           1             0.031932    [1[6[8][1][1]]]                                             
