12

  C           8.855435             2.500085            -1.398292            0             0.099454    [6[8[1]][1][1][1]]                                          
  O           8.460156             1.355056            -0.672985            0            -0.597823    [8[6[1][1][1]][1]]                                          
  H           9.255421             1.118995            -0.121987            0             0.402573    [1[8[6]]]                                                   
  H           9.214119             3.364614            -0.741264            0             0.031932    [1[6[8][1][1]]]                                             
  H           9.646805             2.202095            -2.062144            0             0.031932    [1[6[8][1][1]]]                                             
  H           8.024161             2.826217            -2.019382            0             0.031932    [1[6[8][1][1]]]                                             
  C           10.184271           -2.915006            -1.302727            1             0.099454    [6[8[1]][1][1][1]]                                          
  O           10.829222           -4.170908            -1.493779            1            -0.597823    [8[6[1][1][1]][1]]                                          
  H           11.709887           -4.163687            -1.226007            1             0.402573    [1[8[6]]]                                                   
  H           10.399975           -2.493075            -0.325433            1             0.031932    [1[6[8][1][1]]]                                             
  H           10.460095           -2.159263            -1.976337            1             0.031932    [1[6[8][1][1]]]                                             
  H           9.088234            -2.966465            -1.254846            1             0.031932    [1[6[8][1][1]]]                                             
