12

  C           6.480167             4.850157             8.017725            0             0.099454    [6[8[1]][1][1][1]]                                          
  O           6.846940             3.890680             7.044795            0            -0.597823    [8[6[1][1][1]][1]]                                          
  H           7.195709             4.304133             6.297054            0             0.402573    [1[8[6]]]                                                   
  H           7.306813             5.169564             8.669647            0             0.031932    [1[6[8][1][1]]]                                             
  H           6.202793             5.826223             7.485602            0             0.031932    [1[6[8][1][1]]]                                             
  H           5.554086             4.491351             8.572135            0             0.031932    [1[6[8][1][1]]]                                             
  C           4.203473             7.084668             10.786911           1             0.099454    [6[8[1]][1][1][1]]                                          
  O           2.783788             6.871296             10.853488           1            -0.597823    [8[6[1][1][1]][1]]                                          
  H           2.590213             5.995350             11.134194           1             0.402573    [1[8[6]]]                                                   
  H           4.585779             6.600263             11.720217           1             0.031932    [1[6[8][1][1]]]                                             
  H           4.613238             6.702095             9.822883            1             0.031932    [1[6[8][1][1]]]                                             
  H           4.489725             8.129061             10.896603           1             0.031932    [1[6[8][1][1]]]                                             
