12

  C           6.764283            -9.797262             4.796798            0             0.099454    [6[8[1]][1][1][1]]                                          
  O           7.854235            -9.253086             5.558836            0            -0.597823    [8[6[1][1][1]][1]]                                          
  H           8.440373            -8.669675             5.044567            0             0.402573    [1[8[6]]]                                                   
  H           6.126712            -10.337744            5.499328            0             0.031932    [1[6[8][1][1]]]                                             
  H           6.264568            -8.981207             4.208230            0             0.031932    [1[6[8][1][1]]]                                             
  H           7.082795            -10.555114            4.057515            0             0.031932    [1[6[8][1][1]]]                                             
  C           9.769262            -7.615812             2.790514            1             0.099454    [6[8[1]][1][1][1]]                                          
  O           9.008216            -7.107357             3.842723            1            -0.597823    [8[6[1][1][1]][1]]                                          
  H           8.368611            -6.424583             3.579696            1             0.402573    [1[8[6]]]                                                   
  H           10.096084           -6.844270             2.058707            1             0.031932    [1[6[8][1][1]]]                                             
  H           10.680623           -8.247981             3.015261            1             0.031932    [1[6[8][1][1]]]                                             
  H           9.048074            -8.278139             2.241576            1             0.031932    [1[6[8][1][1]]]                                             
