12

  C           3.221137             7.634066             8.195643            0             0.099454    [6[8[1]][1][1][1]]                                          
  O           3.982834             7.118366             9.205529            0            -0.597823    [8[6[1][1][1]][1]]                                          
  H           4.894659             7.152275             8.965242            0             0.402573    [1[8[6]]]                                                   
  H           3.626544             8.552249             7.826368            0             0.031932    [1[6[8][1][1]]]                                             
  H           3.290289             6.915142             7.335799            0             0.031932    [1[6[8][1][1]]]                                             
  H           2.201108             7.700457             8.443460            0             0.031932    [1[6[8][1][1]]]                                             
  C          -0.142931             8.263179             6.533669            1             0.099454    [6[8[1]][1][1][1]]                                          
  O          -0.361188             9.419790             5.738587            1            -0.597823    [8[6[1][1][1]][1]]                                          
  H           0.199142             10.107396            6.079227            1             0.402573    [1[8[6]]]                                                   
  H          -0.909813             7.509194             6.282827            1             0.031932    [1[6[8][1][1]]]                                             
  H           0.815021             7.808487             6.252592            1             0.031932    [1[6[8][1][1]]]                                             
  H          -0.223241             8.409902             7.572470            1             0.031932    [1[6[8][1][1]]]                                             
