12

  C          -5.021241            -8.045832             2.494545            0             0.099454    [6[8[1]][1][1][1]]                                          
  O          -5.989247            -7.308026             3.203133            0            -0.597823    [8[6[1][1][1]][1]]                                          
  H          -6.772489            -7.218520             2.640288            0             0.402573    [1[8[6]]]                                                   
  H          -4.100609            -8.060883             3.101031            0             0.031932    [1[6[8][1][1]]]                                             
  H          -5.262900            -9.056602             2.291049            0             0.031932    [1[6[8][1][1]]]                                             
  H          -4.833772            -7.685138             1.454732            0             0.031932    [1[6[8][1][1]]]                                             
  C          -2.783148            -4.777537             2.431724            1             0.099454    [6[8[1]][1][1][1]]                                          
  O          -1.829021            -5.293584             3.392940            1            -0.597823    [8[6[1][1][1]][1]]                                          
  H          -1.867300            -4.710863             4.157976            1             0.402573    [1[8[6]]]                                                   
  H          -2.752814            -5.410339             1.611272            1             0.031932    [1[6[8][1][1]]]                                             
  H          -3.882283            -4.787825             2.730736            1             0.031932    [1[6[8][1][1]]]                                             
  H          -2.585822            -3.705635             2.105126            1             0.031932    [1[6[8][1][1]]]                                             
