12

  C          -4.262804            -3.298811             4.931557            0             0.099454    [6[8[1]][1][1][1]]                                          
  O          -3.864564            -2.942529             6.210114            0            -0.597823    [8[6[1][1][1]][1]]                                          
  H          -2.899731            -2.834253             6.123950            0             0.402573    [1[8[6]]]                                                   
  H          -4.286093            -4.428996             4.908977            0             0.031932    [1[6[8][1][1]]]                                             
  H          -5.227939            -2.841040             4.620827            0             0.031932    [1[6[8][1][1]]]                                             
  H          -3.491225            -3.035285             4.130311            0             0.031932    [1[6[8][1][1]]]                                             
  C          -6.809828            -7.466043             3.576054            1             0.099454    [6[8[1]][1][1][1]]                                          
  O          -7.899568            -7.122431             2.761647            1            -0.597823    [8[6[1][1][1]][1]]                                          
  H          -8.485116            -6.571884             3.300043            1             0.402573    [1[8[6]]]                                                   
  H          -6.140757            -8.235801             3.211368            1             0.031932    [1[6[8][1][1]]]                                             
  H          -6.195975            -6.624707             3.804071            1             0.031932    [1[6[8][1][1]]]                                             
  H          -7.153628            -7.872314             4.553636            1             0.031932    [1[6[8][1][1]]]                                             
