12

  C           0.399239            -8.859715            -3.556576            0             0.099454    [6[8[1]][1][1][1]]                                          
  O           0.031534            -8.982643            -2.192844            0            -0.597823    [8[6[1][1][1]][1]]                                          
  H           0.511903            -9.696120            -1.791495            0             0.402573    [1[8[6]]]                                                   
  H          -0.019064            -7.961344            -3.953290            0             0.031932    [1[6[8][1][1]]]                                             
  H           1.515028            -8.803939            -3.714569            0             0.031932    [1[6[8][1][1]]]                                             
  H          -0.081125            -9.682371            -4.161165            0             0.031932    [1[6[8][1][1]]]                                             
  C          -2.293713            -8.881930             0.250787            1             0.099454    [6[8[1]][1][1][1]]                                          
  O          -1.068833            -8.238405             0.185196            1            -0.597823    [8[6[1][1][1]][1]]                                          
  H          -0.646330            -8.471846            -0.718595            1             0.402573    [1[8[6]]]                                                   
  H          -2.184696            -9.919336             0.150728            1             0.031932    [1[6[8][1][1]]]                                             
  H          -2.724398            -8.545962             1.216586            1             0.031932    [1[6[8][1][1]]]                                             
  H          -2.990550            -8.492704            -0.545659            1             0.031932    [1[6[8][1][1]]]                                             
