12

  C          -2.148013             2.129847             1.911966            0             0.099454    [6[8[1]][1][1][1]]                                          
  O          -0.703100             2.202816             2.039990            0            -0.597823    [8[6[1][1][1]][1]]                                          
  H          -0.327344             2.930984             1.522731            0             0.402573    [1[8[6]]]                                                   
  H          -2.414317             2.238284             0.914172            0             0.031932    [1[6[8][1][1]]]                                             
  H          -2.582117             1.155431             2.198879            0             0.031932    [1[6[8][1][1]]]                                             
  H          -2.594961             2.946416             2.554262            0             0.031932    [1[6[8][1][1]]]                                             
  C           1.722889             4.769203             0.376616            1             0.099454    [6[8[1]][1][1][1]]                                          
  O           0.399741             4.545588             0.899651            1            -0.597823    [8[6[1][1][1]][1]]                                          
  H          -0.141667             4.517815             0.109783            1             0.402573    [1[8[6]]]                                                   
  H           2.065816             3.898530            -0.238405            1             0.031932    [1[6[8][1][1]]]                                             
  H           1.754386             5.714182            -0.138334            1             0.031932    [1[6[8][1][1]]]                                             
  H           2.523821             4.837285             1.055451            1             0.031932    [1[6[8][1][1]]]                                             
