12

  C           9.977652            -2.198286            -7.359169            0             0.099454    [6[8[1]][1][1][1]]                                          
  O           11.412398           -2.219645            -7.354476            0            -0.597823    [8[6[1][1][1]][1]]                                          
  H           11.773627           -1.911416            -6.524812            0             0.402573    [1[8[6]]]                                                   
  H           9.486885            -2.938841            -6.747138            0             0.031932    [1[6[8][1][1]]]                                             
  H           9.553607            -1.262547            -7.091710            0             0.031932    [1[6[8][1][1]]]                                             
  H           9.519030            -2.212074            -8.322583            0             0.031932    [1[6[8][1][1]]]                                             
  C           6.671575             0.864832            -9.575396            1             0.099454    [6[8[1]][1][1][1]]                                          
  O           5.502137             0.769810            -10.286720           1            -0.597823    [8[6[1][1][1]][1]]                                          
  H           5.410029            -0.072044            -10.730265           1             0.402573    [1[8[6]]]                                                   
  H           6.634025             0.216302            -8.719840            1             0.031932    [1[6[8][1][1]]]                                             
  H           7.489950             0.358097            -10.100182           1             0.031932    [1[6[8][1][1]]]                                             
  H           6.898265             1.942829            -9.426292            1             0.031932    [1[6[8][1][1]]]                                             
