12

  C          -8.175449             2.746765            -1.837950            0             0.099454    [6[8[1]][1][1][1]]                                          
  O          -8.060172             1.347872            -1.509764            0            -0.597823    [8[6[1][1][1]][1]]                                          
  H          -7.152855             1.053652            -1.666158            0             0.402573    [1[8[6]]]                                                   
  H          -8.791188             3.313160            -1.209012            0             0.031932    [1[6[8][1][1]]]                                             
  H          -7.184519             3.201967            -1.930907            0             0.031932    [1[6[8][1][1]]]                                             
  H          -8.582462             2.806671            -2.921973            0             0.031932    [1[6[8][1][1]]]                                             
  C          -4.337666             0.501851            -1.889345            1             0.099454    [6[8[1]][1][1][1]]                                          
  O          -5.619004             0.650676            -2.483384            1            -0.597823    [8[6[1][1][1]][1]]                                          
  H          -5.565727             1.294701            -3.176303            1             0.402573    [1[8[6]]]                                                   
  H          -4.456316            -0.139989            -0.980967            1             0.031932    [1[6[8][1][1]]]                                             
  H          -3.606435            -0.028678            -2.449864            1             0.031932    [1[6[8][1][1]]]                                             
  H          -3.910458             1.414120            -1.539723            1             0.031932    [1[6[8][1][1]]]                                             
