6

  C          -0.175020             8.072113             5.326848            0             0.089063    [6[8[1]][1][1][1]]                                          
  O           0.249914             9.433086             5.415304            0            -0.604789    [8[6[1][1][1]][1]]                                          
  H           0.798402             9.499366             4.623105            0             0.406250    [1[8[6]]]                                                   
  H          -1.269058             7.906724             5.446056            0             0.036492    [1[6[8][1][1]]]                                             
  H           0.064331             7.736061             4.338662            0             0.036492    [1[6[8][1][1]]]                                             
  H           0.330196             7.390484             6.035953            0             0.036492    [1[6[8][1][1]]]                                             
