12

  C          -0.749633             2.416253            -3.313901            0             0.099454    [6[8[1]][1][1][1]]                                          
  O          -0.861180             1.452458            -2.250456            0            -0.597823    [8[6[1][1][1]][1]]                                          
  H           0.018248             1.215378            -2.084135            0             0.402573    [1[8[6]]]                                                   
  H          -1.723585             2.657808            -3.810069            0             0.031932    [1[6[8][1][1]]]                                             
  H          -0.325219             3.272619            -2.879507            0             0.031932    [1[6[8][1][1]]]                                             
  H          -0.054227             2.091398            -4.053934            0             0.031932    [1[6[8][1][1]]]                                             
  C          -1.574959             5.552687             0.052939            1             0.099454    [6[8[1]][1][1][1]]                                          
  O          -0.213049             5.315815            -0.311016            1            -0.597823    [8[6[1][1][1]][1]]                                          
  H           0.156390             6.059538            -0.790680            1             0.402573    [1[8[6]]]                                                   
  H          -2.149226             5.731861            -0.873116            1             0.031932    [1[6[8][1][1]]]                                             
  H          -1.975648             4.632163             0.646193            1             0.031932    [1[6[8][1][1]]]                                             
  H          -1.674990             6.385533             0.750422            1             0.031932    [1[6[8][1][1]]]                                             
