12

  C           5.268727            -3.063159             7.449425            0             0.099454    [6[8[1]][1][1][1]]                                          
  O           6.666113            -3.106608             7.276511            0            -0.597823    [8[6[1][1][1]][1]]                                          
  H           6.971623            -4.013655             7.312842            0             0.402573    [1[8[6]]]                                                   
  H           4.745337            -3.110422             6.493935            0             0.031932    [1[6[8][1][1]]]                                             
  H           4.932925            -3.893901             8.091872            0             0.031932    [1[6[8][1][1]]]                                             
  H           5.027289            -2.137624             7.948754            0             0.031932    [1[6[8][1][1]]]                                             
  C           8.688637            -2.375975             10.960818           1             0.099454    [6[8[1]][1][1][1]]                                          
  O           7.454048            -2.255057             10.299819           1            -0.597823    [8[6[1][1][1]][1]]                                          
  H           7.658497            -2.290132             9.340659            1             0.402573    [1[8[6]]]                                                   
  H           8.886621            -3.384822             11.307108           1             0.031932    [1[6[8][1][1]]]                                             
  H           9.483844            -2.092720             10.345854           1             0.031932    [1[6[8][1][1]]]                                             
  H           8.576336            -1.714098             11.815789           1             0.031932    [1[6[8][1][1]]]                                             
