12

  C           0.395747             0.499302             3.166637            0             0.099454    [6[8[1]][1][1][1]]                                          
  O          -0.741435             1.109411             2.820772            0            -0.597823    [8[6[1][1][1]][1]]                                          
  H          -1.443136             0.800324             3.428644            0             0.402573    [1[8[6]]]                                                   
  H           0.572906             0.753819             4.234277            0             0.031932    [1[6[8][1][1]]]                                             
  H           0.320529            -0.597235             3.056164            0             0.031932    [1[6[8][1][1]]]                                             
  H           1.203881             0.845296             2.442496            0             0.031932    [1[6[8][1][1]]]                                             
  C          -0.112356             0.089913             7.947198            1             0.099454    [6[8[1]][1][1][1]]                                          
  O          -0.638127             0.895916             6.936632            1            -0.597823    [8[6[1][1][1]][1]]                                          
  H          -1.086471             1.642819             7.343188            1             0.402573    [1[8[6]]]                                                   
  H          -0.795974            -0.516675             8.451876            1             0.031932    [1[6[8][1][1]]]                                             
  H           0.816465            -0.433607             7.626531            1             0.031932    [1[6[8][1][1]]]                                             
  H           0.204681             0.738533             8.713782            1             0.031932    [1[6[8][1][1]]]                                             
