12

  C           5.651281            -6.607152            -7.131808            0             0.099454    [6[8[1]][1][1][1]]                                          
  O           4.421029            -6.172387            -6.635053            0            -0.597823    [8[6[1][1][1]][1]]                                          
  H           3.846128            -6.941923            -6.443546            0             0.402573    [1[8[6]]]                                                   
  H           6.331579            -5.736460            -7.229165            0             0.031932    [1[6[8][1][1]]]                                             
  H           6.041744            -7.382705            -6.519006            0             0.031932    [1[6[8][1][1]]]                                             
  H           5.543523            -7.079936            -8.062609            0             0.031932    [1[6[8][1][1]]]                                             
  C          -0.352856            -5.334029            -9.666585            1             0.099454    [6[8[1]][1][1][1]]                                          
  O          -0.317757            -4.982674            -8.320663            1            -0.597823    [8[6[1][1][1]][1]]                                          
  H           0.344040            -4.366143            -8.272061            1             0.402573    [1[8[6]]]                                                   
  H           0.635748            -5.542697            -10.066243           1             0.031932    [1[6[8][1][1]]]                                             
  H          -0.869216            -6.260328            -9.669507            1             0.031932    [1[6[8][1][1]]]                                             
  H          -0.853372            -4.654679            -10.321989           1             0.031932    [1[6[8][1][1]]]                                             
