12

  C           8.250343             5.705359            -1.178994            0             0.099454    [6[8[1]][1][1][1]]                                          
  O           7.781973             4.399579            -0.935683            0            -0.597823    [8[6[1][1][1]][1]]                                          
  H           6.990076             4.528335            -0.441139            0             0.402573    [1[8[6]]]                                                   
  H           7.784217             6.542154            -0.621818            0             0.031932    [1[6[8][1][1]]]                                             
  H           9.292746             5.743374            -0.911809            0             0.031932    [1[6[8][1][1]]]                                             
  H           8.314528             5.887828            -2.257205            0             0.031932    [1[6[8][1][1]]]                                             
  C           9.970303             2.547988            -1.955222            1             0.099454    [6[8[1]][1][1][1]]                                          
  O           11.124587            1.796867            -2.009329            1            -0.597823    [8[6[1][1][1]][1]]                                          
  H           11.460932            1.481587            -2.840544            1             0.402573    [1[8[6]]]                                                   
  H           9.207894             2.121664            -2.571068            1             0.031932    [1[6[8][1][1]]]                                             
  H           9.617390             2.723581            -0.932174            1             0.031932    [1[6[8][1][1]]]                                             
  H           10.100876            3.577035            -2.388590            1             0.031932    [1[6[8][1][1]]]                                             
