12

  C          -1.585375            -0.526504             1.034932            0             0.099454    [6[8[1]][1][1][1]]                                          
  O          -1.659778            -0.611331             2.447003            0            -0.597823    [8[6[1][1][1]][1]]                                          
  H          -2.532319            -0.358363             2.745018            0             0.402573    [1[8[6]]]                                                   
  H          -0.888317             0.258825             0.604334            0             0.031932    [1[6[8][1][1]]]                                             
  H          -1.291051            -1.503012             0.632394            0             0.031932    [1[6[8][1][1]]]                                             
  H          -2.593034            -0.391837             0.618044            0             0.031932    [1[6[8][1][1]]]                                             
  C           0.065464            -4.211763             3.544082            1             0.099454    [6[8[1]][1][1][1]]                                          
  O           0.811758            -3.591508             4.520244            1            -0.597823    [8[6[1][1][1]][1]]                                          
  H           1.119619            -4.270361             5.134675            1             0.402573    [1[8[6]]]                                                   
  H           0.671421            -4.857393             3.010172            1             0.031932    [1[6[8][1][1]]]                                             
  H          -0.768815            -4.826459             3.971872            1             0.031932    [1[6[8][1][1]]]                                             
  H          -0.362003            -3.489783             2.859465            1             0.031932    [1[6[8][1][1]]]                                             
