6

  C           2.071981            -3.350948             7.780255            0             0.089063    [6[8[1]][1][1][1]]                                          
  O           2.401524            -4.334646             6.808581            0            -0.604789    [8[6[1][1][1]][1]]                                          
  H           2.498126            -5.225193             7.179264            0             0.406250    [1[8[6]]]                                                   
  H           2.238102            -2.371984             7.414595            0             0.036492    [1[6[8][1][1]]]                                             
  H           0.959148            -3.367396             7.951611            0             0.036492    [1[6[8][1][1]]]                                             
  H           2.519001            -3.570511             8.714556            0             0.036492    [1[6[8][1][1]]]                                             
