12

  C          -4.592135            -8.778354            -4.672863            0             0.099454    [6[8[1]][1][1][1]]                                          
  O          -4.996036            -7.685713            -3.782804            0            -0.597823    [8[6[1][1][1]][1]]                                          
  H          -4.696775            -7.821721            -2.928204            0             0.402573    [1[8[6]]]                                                   
  H          -3.534098            -9.010149            -4.638917            0             0.031932    [1[6[8][1][1]]]                                             
  H          -5.112055            -9.688766            -4.343416            0             0.031932    [1[6[8][1][1]]]                                             
  H          -4.938609            -8.647915            -5.698391            0             0.031932    [1[6[8][1][1]]]                                             
  C          -3.724706            -3.539969            -0.684343            1             0.099454    [6[8[1]][1][1][1]]                                          
  O          -4.811907            -3.867002            -1.552285            1            -0.597823    [8[6[1][1][1]][1]]                                          
  H          -5.140295            -3.032049            -1.928228            1             0.402573    [1[8[6]]]                                                   
  H          -3.151461            -4.402956            -0.364138            1             0.031932    [1[6[8][1][1]]]                                             
  H          -3.067801            -2.758398            -1.100880            1             0.031932    [1[6[8][1][1]]]                                             
  H          -4.061478            -3.141803             0.297262            1             0.031932    [1[6[8][1][1]]]                                             
