12

  C           0.693580             10.738664            9.003647            0             0.099454    [6[8[1]][1][1][1]]                                          
  O          -0.631449             10.218537            8.833525            0            -0.597823    [8[6[1][1][1]][1]]                                          
  H          -0.875626             10.477739            7.931465            0             0.402573    [1[8[6]]]                                                   
  H           0.926423             11.509323            8.158757            0             0.031932    [1[6[8][1][1]]]                                             
  H           0.794173             11.306749            9.896924            0             0.031932    [1[6[8][1][1]]]                                             
  H           1.519966             9.978133             8.991568            0             0.031932    [1[6[8][1][1]]]                                             
  C          -2.669499             7.020750             9.637858            1             0.099454    [6[8[1]][1][1][1]]                                          
  O          -1.999993             6.537438             10.806009           1            -0.597823    [8[6[1][1][1]][1]]                                          
  H          -1.723550             7.340090             11.326019           1             0.402573    [1[8[6]]]                                                   
  H          -3.078650             6.164774             9.039499            1             0.031932    [1[6[8][1][1]]]                                             
  H          -3.561585             7.594151             9.931221            1             0.031932    [1[6[8][1][1]]]                                             
  H          -2.019952             7.725249             9.114997            1             0.031932    [1[6[8][1][1]]]                                             
