12

  C           0.569891            -5.382715            -7.010546            0             0.099454    [6[8[1]][1][1][1]]                                          
  O           0.773501            -4.376366            -7.990577            0            -0.597823    [8[6[1][1][1]][1]]                                          
  H           0.921267            -3.482390            -7.603652            0             0.402573    [1[8[6]]]                                                   
  H          -0.365843            -5.204678            -6.471750            0             0.031932    [1[6[8][1][1]]]                                             
  H           0.436550            -6.385259            -7.416811            0             0.031932    [1[6[8][1][1]]]                                             
  H           1.339440            -5.489965            -6.216515            0             0.031932    [1[6[8][1][1]]]                                             
  C           1.894563            -0.448606            -6.696315            1             0.099454    [6[8[1]][1][1][1]]                                          
  O           1.036595            -1.215132            -5.832134            1            -0.597823    [8[6[1][1][1]][1]]                                          
  H           0.100914            -1.153265            -6.088149            1             0.402573    [1[8[6]]]                                                   
  H           1.823900            -0.652552            -7.801693            1             0.031932    [1[6[8][1][1]]]                                             
  H           1.867213             0.673488            -6.495648            1             0.031932    [1[6[8][1][1]]]                                             
  H           2.991278            -0.743414            -6.465432            1             0.031932    [1[6[8][1][1]]]                                             
