12

  C           2.644582            -4.496149             4.921701            0             0.099454    [6[8[1]][1][1][1]]                                          
  O           1.571882            -5.465876             5.016327            0            -0.597823    [8[6[1][1][1]][1]]                                          
  H           0.734321            -5.043278             5.354497            0             0.402573    [1[8[6]]]                                                   
  H           3.257729            -4.554362             5.857195            0             0.031932    [1[6[8][1][1]]]                                             
  H           3.420873            -4.747145             4.172869            0             0.031932    [1[6[8][1][1]]]                                             
  H           2.283139            -3.498105             4.678804            0             0.031932    [1[6[8][1][1]]]                                             
  C           1.707652            -9.586707             1.253464            1             0.099454    [6[8[1]][1][1][1]]                                          
  O           2.113823            -8.697729             2.235801            1            -0.597823    [8[6[1][1][1]][1]]                                          
  H           2.186513            -9.141480             3.106202            1             0.402573    [1[8[6]]]                                                   
  H           0.630820            -9.935662             1.490338            1             0.031932    [1[6[8][1][1]]]                                             
  H           1.712268            -9.153807             0.292293            1             0.031932    [1[6[8][1][1]]]                                             
  H           2.335662            -10.485198            1.058917            1             0.031932    [1[6[8][1][1]]]                                             
