12

  C           1.360282            -4.777872            -0.154041            0             0.099454    [6[8[1]][1][1][1]]                                          
  O           0.112124            -4.454516             0.466890            0            -0.597823    [8[6[1][1][1]][1]]                                          
  H           0.255263            -3.645348             0.929075            0             0.402573    [1[8[6]]]                                                   
  H           1.579164            -4.006664            -0.829384            0             0.031932    [1[6[8][1][1]]]                                             
  H           2.089112            -4.804114             0.602860            0             0.031932    [1[6[8][1][1]]]                                             
  H           1.466500            -5.741228            -0.685839            0             0.031932    [1[6[8][1][1]]]                                             
  C          -0.641337            -1.278704             2.735910            1             0.099454    [6[8[1]][1][1][1]]                                          
  O          -0.235503            -1.995124             1.558616            1            -0.597823    [8[6[1][1][1]][1]]                                          
  H          -0.216393            -1.287634             0.896333            1             0.402573    [1[8[6]]]                                                   
  H          -1.715056            -1.169015             2.646839            1             0.031932    [1[6[8][1][1]]]                                             
  H          -0.486806            -1.780883             3.720906            1             0.031932    [1[6[8][1][1]]]                                             
  H          -0.073791            -0.337690             2.824643            1             0.031932    [1[6[8][1][1]]]                                             
