12

  C           4.463888             10.329483            8.452455            0             0.099454    [6[8[1]][1][1][1]]                                          
  O           5.053410             11.626280            8.445353            0            -0.597823    [8[6[1][1][1]][1]]                                          
  H           5.107064             11.999492            9.351809            0             0.402573    [1[8[6]]]                                                   
  H           3.465351             10.341592            8.955897            0             0.031932    [1[6[8][1][1]]]                                             
  H           4.478914             10.000706            7.463618            0             0.031932    [1[6[8][1][1]]]                                             
  H           5.187701             9.732460             8.978266            0             0.031932    [1[6[8][1][1]]]                                             
  C           0.420741             10.623479            11.305474           1             0.099454    [6[8[1]][1][1][1]]                                          
  O           0.797643             9.738341             10.295396           1            -0.597823    [8[6[1][1][1]][1]]                                          
  H           0.225182             9.836223             9.508148            1             0.402573    [1[8[6]]]                                                   
  H           0.955184             10.412358            12.187692           1             0.031932    [1[6[8][1][1]]]                                             
  H           0.691266             11.632230            10.996081           1             0.031932    [1[6[8][1][1]]]                                             
  H          -0.674842             10.649295            11.323613           1             0.031932    [1[6[8][1][1]]]                                             
