12

  C          -2.327879            -1.689422            -8.778547            0             0.099454    [6[8[1]][1][1][1]]                                          
  O          -1.414397            -2.216028            -7.842568            0            -0.597823    [8[6[1][1][1]][1]]                                          
  H          -1.431879            -3.135477            -8.159358            0             0.402573    [1[8[6]]]                                                   
  H          -1.907718            -1.481460            -9.705796            0             0.031932    [1[6[8][1][1]]]                                             
  H          -3.138934            -2.311804            -8.966968            0             0.031932    [1[6[8][1][1]]]                                             
  H          -2.843604            -0.810400            -8.339234            0             0.031932    [1[6[8][1][1]]]                                             
  C          -4.415804            -6.305064            -9.010949            1             0.099454    [6[8[1]][1][1][1]]                                          
  O          -3.554945            -7.024887            -9.821782            1            -0.597823    [8[6[1][1][1]][1]]                                          
  H          -3.705395            -6.707970            -10.700897           1             0.402573    [1[8[6]]]                                                   
  H          -4.060751            -5.249625            -8.799378            1             0.031932    [1[6[8][1][1]]]                                             
  H          -5.379806            -6.265267            -9.537826            1             0.031932    [1[6[8][1][1]]]                                             
  H          -4.717809            -6.763836            -8.096143            1             0.031932    [1[6[8][1][1]]]                                             
