12

  C           1.360282            -4.777872            -0.154041            0             0.099454    [6[8[1]][1][1][1]]                                          
  O           0.112124            -4.454516             0.466890            0            -0.597823    [8[6[1][1][1]][1]]                                          
  H           0.255263            -3.645348             0.929075            0             0.402573    [1[8[6]]]                                                   
  H           1.579164            -4.006664            -0.829384            0             0.031932    [1[6[8][1][1]]]                                             
  H           2.089112            -4.804114             0.602860            0             0.031932    [1[6[8][1][1]]]                                             
  H           1.466500            -5.741228            -0.685839            0             0.031932    [1[6[8][1][1]]]                                             
  C           3.469008            -1.396693             3.312950            1             0.099454    [6[8[1]][1][1][1]]                                          
  O           3.053525            -0.547470             4.334124            1            -0.597823    [8[6[1][1][1]][1]]                                          
  H           2.250818            -0.779523             4.803818            1             0.402573    [1[8[6]]]                                                   
  H           2.663102            -1.734516             2.755334            1             0.031932    [1[6[8][1][1]]]                                             
  H           4.191269            -0.832370             2.641933            1             0.031932    [1[6[8][1][1]]]                                             
  H           4.043062            -2.278263             3.746632            1             0.031932    [1[6[8][1][1]]]                                             
