12

  C          -1.585404             3.392058             7.212129            0             0.099454    [6[8[1]][1][1][1]]                                          
  O          -2.120105             3.744945             8.520689            0            -0.597823    [8[6[1][1][1]][1]]                                          
  H          -1.462705             3.477092             9.167592            0             0.402573    [1[8[6]]]                                                   
  H          -2.311762             3.531126             6.455074            0             0.031932    [1[6[8][1][1]]]                                             
  H          -0.759444             4.075805             6.822156            0             0.031932    [1[6[8][1][1]]]                                             
  H          -1.228848             2.336794             7.215379            0             0.031932    [1[6[8][1][1]]]                                             
  C           0.644906             2.858696             10.102928           1             0.099454    [6[8[1]][1][1][1]]                                          
  O          -0.385430             3.457382             10.842335           1            -0.597823    [8[6[1][1][1]][1]]                                          
  H           0.023696             3.705222             11.691541           1             0.402573    [1[8[6]]]                                                   
  H           0.848694             3.478940             9.148211            1             0.031932    [1[6[8][1][1]]]                                             
  H           1.511680             2.660936             10.662323           1             0.031932    [1[6[8][1][1]]]                                             
  H           0.346533             1.838836             9.787821            1             0.031932    [1[6[8][1][1]]]                                             
