12

  C          -1.043704            -4.234054             3.067058            0             0.099454    [6[8[1]][1][1][1]]                                          
  O          -0.967894            -4.898226             4.364749            0            -0.597823    [8[6[1][1][1]][1]]                                          
  H          -1.811567            -5.220936             4.592340            0             0.402573    [1[8[6]]]                                                   
  H          -1.580061            -3.307889             3.073810            0             0.031932    [1[6[8][1][1]]]                                             
  H          -0.006759            -3.989458             2.723288            0             0.031932    [1[6[8][1][1]]]                                             
  H          -1.542091            -4.895781             2.312860            0             0.031932    [1[6[8][1][1]]]                                             
  C           1.088287            -5.431321             7.097600            1             0.099454    [6[8[1]][1][1][1]]                                          
  O           1.378152            -4.681061             5.972088            1            -0.597823    [8[6[1][1][1]][1]]                                          
  H           0.733265            -4.938297             5.285222            1             0.402573    [1[8[6]]]                                                   
  H           1.351408            -6.480254             7.040875            1             0.031932    [1[6[8][1][1]]]                                             
  H           1.562013            -4.951419             7.949403            1             0.031932    [1[6[8][1][1]]]                                             
  H          -0.004415            -5.432203             7.255483            1             0.031932    [1[6[8][1][1]]]                                             
