12

  C          -4.592135            -8.778354            -4.672863            0             0.099454    [6[8[1]][1][1][1]]                                          
  O          -4.996036            -7.685713            -3.782804            0            -0.597823    [8[6[1][1][1]][1]]                                          
  H          -4.696775            -7.821721            -2.928204            0             0.402573    [1[8[6]]]                                                   
  H          -3.534098            -9.010149            -4.638917            0             0.031932    [1[6[8][1][1]]]                                             
  H          -5.112055            -9.688766            -4.343416            0             0.031932    [1[6[8][1][1]]]                                             
  H          -4.938609            -8.647915            -5.698391            0             0.031932    [1[6[8][1][1]]]                                             
  C          -2.954584            -6.359247            -7.681066            1             0.099454    [6[8[1]][1][1][1]]                                          
  O          -2.860629            -6.598741            -6.275569            1            -0.597823    [8[6[1][1][1]][1]]                                          
  H          -3.711140            -6.456979            -5.913500            1             0.402573    [1[8[6]]]                                                   
  H          -2.228339            -6.869746            -8.342924            1             0.031932    [1[6[8][1][1]]]                                             
  H          -4.042323            -6.698064            -7.901465            1             0.031932    [1[6[8][1][1]]]                                             
  H          -2.942604            -5.298880            -7.839737            1             0.031932    [1[6[8][1][1]]]                                             
