12

  C          -1.179622            -0.680025             6.462159            0             0.099454    [6[8[1]][1][1][1]]                                          
  O          -1.994517             0.038928             7.405688            0            -0.597823    [8[6[1][1][1]][1]]                                          
  H          -2.109912             0.907878             7.079844            0             0.402573    [1[8[6]]]                                                   
  H          -0.109920            -0.503745             6.727623            0             0.031932    [1[6[8][1][1]]]                                             
  H          -1.354234            -1.756892             6.522703            0             0.031932    [1[6[8][1][1]]]                                             
  H          -1.366128            -0.313220             5.402350            0             0.031932    [1[6[8][1][1]]]                                             
  C          -3.648083            -3.106244             7.444514            1             0.099454    [6[8[1]][1][1][1]]                                          
  O          -2.585159            -3.555691             8.296022            1            -0.597823    [8[6[1][1][1]][1]]                                          
  H          -2.618639            -3.061493             9.095974            1             0.402573    [1[8[6]]]                                                   
  H          -4.637331            -3.557674             7.707565            1             0.031932    [1[6[8][1][1]]]                                             
  H          -3.848473            -2.049444             7.504523            1             0.031932    [1[6[8][1][1]]]                                             
  H          -3.362883            -3.143375             6.377812            1             0.031932    [1[6[8][1][1]]]                                             
