12

  C          -10.222836            8.222040            -1.314980            0             0.099454    [6[8[1]][1][1][1]]                                          
  O          -9.311791             9.275276            -1.196687            0            -0.597823    [8[6[1][1][1]][1]]                                          
  H          -9.311907             9.779786            -2.046331            0             0.402573    [1[8[6]]]                                                   
  H          -10.054885            7.518585            -0.468699            0             0.031932    [1[6[8][1][1]]]                                             
  H          -11.220995            8.539952            -1.155101            0             0.031932    [1[6[8][1][1]]]                                             
  H          -10.093888            7.611349            -2.239045            0             0.031932    [1[6[8][1][1]]]                                             
  C          -8.408947             11.159215            2.239552            1             0.099454    [6[8[1]][1][1][1]]                                          
  O          -8.037475             10.575306            0.941949            1            -0.597823    [8[6[1][1][1]][1]]                                          
  H          -8.743245             10.204981            0.358566            1             0.402573    [1[8[6]]]                                                   
  H          -8.538852             10.351907            2.978712            1             0.031932    [1[6[8][1][1]]]                                             
  H          -7.662695             11.936653            2.586076            1             0.031932    [1[6[8][1][1]]]                                             
  H          -9.404057             11.635072            2.243236            1             0.031932    [1[6[8][1][1]]]                                             
