12

  C           6.644204            -5.381908             9.413953            0             0.099454    [6[8[1]][1][1][1]]                                          
  O           6.052512            -6.076243             8.369976            0            -0.597823    [8[6[1][1][1]][1]]                                          
  H           6.674226            -6.664635             7.970221            0             0.402573    [1[8[6]]]                                                   
  H           5.870115            -4.708260             9.921547            0             0.031932    [1[6[8][1][1]]]                                             
  H           6.957315            -6.125516             10.130067           0             0.031932    [1[6[8][1][1]]]                                             
  H           7.387805            -4.639974             9.029258            0             0.031932    [1[6[8][1][1]]]                                             
  C           3.917451            -5.779108             5.175737            1             0.099454    [6[8[1]][1][1][1]]                                          
  O           4.158751            -4.867202             6.229157            1            -0.597823    [8[6[1][1][1]][1]]                                          
  H           4.600278            -5.328552             6.984526            1             0.402573    [1[8[6]]]                                                   
  H           2.938601            -5.695910             4.797986            1             0.031932    [1[6[8][1][1]]]                                             
  H           4.565441            -5.731815             4.340338            1             0.031932    [1[6[8][1][1]]]                                             
  H           4.066262            -6.756230             5.657678            1             0.031932    [1[6[8][1][1]]]                                             
