12

  C           3.844604             7.891275            -9.190874            0             0.099454    [6[8[1]][1][1][1]]                                          
  O           3.891841             8.428578            -7.932664            0            -0.597823    [8[6[1][1][1]][1]]                                          
  H           3.375586             7.949125            -7.310194            0             0.402573    [1[8[6]]]                                                   
  H           3.866787             6.794202            -9.148046            0             0.031932    [1[6[8][1][1]]]                                             
  H           2.883099             8.128601            -9.731773            0             0.031932    [1[6[8][1][1]]]                                             
  H           4.656236             8.212625            -9.847624            0             0.031932    [1[6[8][1][1]]]                                             
  C           7.384537             8.978298            -6.958331            1             0.099454    [6[8[1]][1][1][1]]                                          
  O           6.628071             7.894352            -6.560422            1            -0.597823    [8[6[1][1][1]][1]]                                          
  H           5.710435             8.133100            -6.679395            1             0.402573    [1[8[6]]]                                                   
  H           7.456695             9.801282            -6.271686            1             0.031932    [1[6[8][1][1]]]                                             
  H           8.400785             8.605963            -7.111194            1             0.031932    [1[6[8][1][1]]]                                             
  H           7.072223             9.311238            -7.908115            1             0.031932    [1[6[8][1][1]]]                                             
