6

  C           0.157398             0.580276            -9.787253            0             0.089063    [6[8[1]][1][1][1]]                                          
  O          -0.820625             0.833063            -10.814872           0            -0.604789    [8[6[1][1][1]][1]]                                          
  H          -0.872331             1.781570            -10.827657           0             0.406250    [1[8[6]]]                                                   
  H           0.059788             1.158303            -8.828569            0             0.036492    [1[6[8][1][1]]]                                             
  H           0.161638            -0.455494            -9.457156            0             0.036492    [1[6[8][1][1]]]                                             
  H           1.138848             0.815064            -10.173976           0             0.036492    [1[6[8][1][1]]]                                             
