12

  C          -4.021581             2.799748            -3.951247            0             0.099454    [6[8[1]][1][1][1]]                                          
  O          -3.968984             3.408857            -2.693875            0            -0.597823    [8[6[1][1][1]][1]]                                          
  H          -3.428997             4.133400            -2.976944            0             0.402573    [1[8[6]]]                                                   
  H          -4.837682             2.116741            -4.115847            0             0.031932    [1[6[8][1][1]]]                                             
  H          -4.388551             3.544017            -4.698766            0             0.031932    [1[6[8][1][1]]]                                             
  H          -3.031499             2.512948            -4.232440            0             0.031932    [1[6[8][1][1]]]                                             
  C          -1.304668             6.825085            -1.251012            1             0.099454    [6[8[1]][1][1][1]]                                          
  O          -1.780940             5.692923            -0.579004            1            -0.597823    [8[6[1][1][1]][1]]                                          
  H          -2.721488             5.823928            -0.475654            1             0.402573    [1[8[6]]]                                                   
  H          -1.420874             7.771139            -0.682283            1             0.031932    [1[6[8][1][1]]]                                             
  H          -0.269965             6.629542            -1.463105            1             0.031932    [1[6[8][1][1]]]                                             
  H          -1.886430             6.968404            -2.148956            1             0.031932    [1[6[8][1][1]]]                                             
