12

  C          -7.366661            -2.963687             2.761216            0             0.099454    [6[8[1]][1][1][1]]                                          
  O          -7.991004            -1.877299             2.184801            0            -0.597823    [8[6[1][1][1]][1]]                                          
  H          -8.630948            -1.490112             2.772157            0             0.402573    [1[8[6]]]                                                   
  H          -8.031490            -3.775481             2.924278            0             0.031932    [1[6[8][1][1]]]                                             
  H          -6.620792            -3.428823             2.136483            0             0.031932    [1[6[8][1][1]]]                                             
  H          -6.995310            -2.677469             3.725112            0             0.031932    [1[6[8][1][1]]]                                             
  C          -5.166520            -2.157854             5.731922            1             0.099454    [6[8[1]][1][1][1]]                                          
  O          -4.352424            -2.878573             4.845293            1            -0.597823    [8[6[1][1][1]][1]]                                          
  H          -4.531012            -2.479481             4.001761            1             0.402573    [1[8[6]]]                                                   
  H          -6.255409            -2.274834             5.542018            1             0.031932    [1[6[8][1][1]]]                                             
  H          -4.978157            -2.425634             6.797351            1             0.031932    [1[6[8][1][1]]]                                             
  H          -5.056658            -1.138531             5.729317            1             0.031932    [1[6[8][1][1]]]                                             
