12

  C          -3.289817             3.839313            -6.482746            0             0.099454    [6[8[1]][1][1][1]]                                          
  O          -4.185576             4.250906            -7.462851            0            -0.597823    [8[6[1][1][1]][1]]                                          
  H          -4.707539             3.455339            -7.545012            0             0.402573    [1[8[6]]]                                                   
  H          -3.645948             3.191517            -5.758856            0             0.031932    [1[6[8][1][1]]]                                             
  H          -2.405513             3.242529            -6.901142            0             0.031932    [1[6[8][1][1]]]                                             
  H          -2.662676             4.632680            -6.020365            0             0.031932    [1[6[8][1][1]]]                                             
  C          -0.791894             0.153209            -7.293953            1             0.099454    [6[8[1]][1][1][1]]                                          
  O          -0.429146             0.665434            -6.098540            1            -0.597823    [8[6[1][1][1]][1]]                                          
  H          -0.963668             0.273240            -5.400980            1             0.402573    [1[8[6]]]                                                   
  H          -1.837251             0.451589            -7.599444            1             0.031932    [1[6[8][1][1]]]                                             
  H          -0.115426             0.306201            -8.126156            1             0.031932    [1[6[8][1][1]]]                                             
  H          -0.855482            -0.922665            -7.269317            1             0.031932    [1[6[8][1][1]]]                                             
