12

  C           11.089585            5.097447             4.611890            0             0.099454    [6[8[1]][1][1][1]]                                          
  O           10.322646            6.224895             4.525903            0            -0.597823    [8[6[1][1][1]][1]]                                          
  H           9.858087             6.349834             5.355066            0             0.402573    [1[8[6]]]                                                   
  H           12.137140            5.173628             5.015755            0             0.031932    [1[6[8][1][1]]]                                             
  H           10.557357            4.253865             5.087310            0             0.031932    [1[6[8][1][1]]]                                             
  H           11.324609            4.716682             3.663376            0             0.031932    [1[6[8][1][1]]]                                             
  C           7.628669             7.630412             5.588731            1             0.099454    [6[8[1]][1][1][1]]                                          
  O           8.218989             6.613648             6.386838            1            -0.597823    [8[6[1][1][1]][1]]                                          
  H           8.132977             7.093867             7.249354            1             0.402573    [1[8[6]]]                                                   
  H           8.419939             8.255814             5.241938            1             0.031932    [1[6[8][1][1]]]                                             
  H           7.138700             7.150735             4.705548            1             0.031932    [1[6[8][1][1]]]                                             
  H           6.885957             8.177862             6.120765            1             0.031932    [1[6[8][1][1]]]                                             
