12

  C           4.682052            -4.285258             7.565120            0             0.099454    [6[8[1]][1][1][1]]                                          
  O           4.866444            -3.775011             6.253769            0            -0.597823    [8[6[1][1][1]][1]]                                          
  H           4.430609            -2.921144             6.243393            0             0.402573    [1[8[6]]]                                                   
  H           4.396078            -3.482571             8.277853            0             0.031932    [1[6[8][1][1]]]                                             
  H           3.896837            -5.017560             7.602140            0             0.031932    [1[6[8][1][1]]]                                             
  H           5.548066            -4.676643             7.981622            0             0.031932    [1[6[8][1][1]]]                                             
  C           6.493591            -7.114689             5.665414            1             0.099454    [6[8[1]][1][1][1]]                                          
  O           7.749158            -7.200561             5.023627            1            -0.597823    [8[6[1][1][1]][1]]                                          
  H           8.417499            -7.256658             5.702624            1             0.402573    [1[8[6]]]                                                   
  H           6.411173            -7.828988             6.442911            1             0.031932    [1[6[8][1][1]]]                                             
  H           6.322881            -6.124128             6.161306            1             0.031932    [1[6[8][1][1]]]                                             
  H           5.695959            -7.314876             5.013645            1             0.031932    [1[6[8][1][1]]]                                             
