12

  C           2.808889             0.844054            -8.414163            0             0.099454    [6[8[1]][1][1][1]]                                          
  O           2.751306            -0.322919            -7.643315            0            -0.597823    [8[6[1][1][1]][1]]                                          
  H           2.321928            -0.062151            -6.767259            0             0.402573    [1[8[6]]]                                                   
  H           3.391022             0.885911            -9.374107            0             0.031932    [1[6[8][1][1]]]                                             
  H           1.750066             0.987597            -8.760820            0             0.031932    [1[6[8][1][1]]]                                             
  H           3.044555             1.683032            -7.747926            0             0.031932    [1[6[8][1][1]]]                                             
  C           5.841575             5.538677            -8.971014            1             0.099454    [6[8[1]][1][1][1]]                                          
  O           5.937929             5.637680            -10.311734           1            -0.597823    [8[6[1][1][1]][1]]                                          
  H           6.324297             4.832202            -10.653868           1             0.402573    [1[8[6]]]                                                   
  H           5.247490             6.394668            -8.527192            1             0.031932    [1[6[8][1][1]]]                                             
  H           5.280921             4.660592            -8.722857            1             0.031932    [1[6[8][1][1]]]                                             
  H           6.775231             5.503065            -8.381655            1             0.031932    [1[6[8][1][1]]]                                             
