12

  C          -11.080017           -0.871185             3.257404            0             0.099454    [6[8[1]][1][1][1]]                                          
  O          -10.361286           -1.402677             2.164674            0            -0.597823    [8[6[1][1][1]][1]]                                          
  H          -9.749079            -2.027279             2.644126            0             0.402573    [1[8[6]]]                                                   
  H          -10.470056           -0.077454             3.599917            0             0.031932    [1[6[8][1][1]]]                                             
  H          -12.139159           -0.623412             2.937376            0             0.031932    [1[6[8][1][1]]]                                             
  H          -11.228174           -1.632528             4.075493            0             0.031932    [1[6[8][1][1]]]                                             
  C          -9.568364            -5.001076             3.076248            1             0.099454    [6[8[1]][1][1][1]]                                          
  O          -10.585887           -4.060923             2.674553            1            -0.597823    [8[6[1][1][1]][1]]                                          
  H          -11.053646           -4.224473             1.849552            1             0.402573    [1[8[6]]]                                                   
  H          -9.040090            -4.562394             3.969071            1             0.031932    [1[6[8][1][1]]]                                             
  H          -10.042803           -5.937623             3.339550            1             0.031932    [1[6[8][1][1]]]                                             
  H          -8.880770            -5.128281             2.263875            1             0.031932    [1[6[8][1][1]]]                                             
