12

  C           1.242681            -1.490844            -1.242399            0             0.099454    [6[8[1]][1][1][1]]                                          
  O           2.017750            -2.223303            -0.392427            0            -0.597823    [8[6[1][1][1]][1]]                                          
  H           2.854270            -2.385998            -0.915143            0             0.402573    [1[8[6]]]                                                   
  H           0.235646            -1.382705            -0.890573            0             0.031932    [1[6[8][1][1]]]                                             
  H           1.563453            -0.460555            -1.422829            0             0.031932    [1[6[8][1][1]]]                                             
  H           1.015853            -1.921014            -2.215583            0             0.031932    [1[6[8][1][1]]]                                             
  C           3.730995             2.317189            -1.471593            1             0.099454    [6[8[1]][1][1][1]]                                          
  O           3.017207             2.651686            -0.297520            1            -0.597823    [8[6[1][1][1]][1]]                                          
  H           2.945211             1.813269             0.187518            1             0.402573    [1[8[6]]]                                                   
  H           4.037266             3.179614            -2.126624            1             0.031932    [1[6[8][1][1]]]                                             
  H           4.642441             1.821646            -1.217812            1             0.031932    [1[6[8][1][1]]]                                             
  H           3.195638             1.613887            -2.159709            1             0.031932    [1[6[8][1][1]]]                                             
