6
Coordinates from ORCA-job 5_geo_opt
  C   3.01135853193426     -1.18093031968301      0.59852251363189
  O   4.39469461219413     -1.12802685591235      0.87428261926366
  H   4.77218243975710     -0.37898661768541      0.41248423952994
  H   2.80644408023394     -1.31897452643752     -0.46931830912773
  H   2.61153031711494     -2.04025452671563      1.13587269969542
  H   2.48479001876563     -0.28451715356608      0.94565623700682
