12

  C          -4.944868            -6.379908            -6.736573            0             0.099454    [6[8[1]][1][1][1]]                                          
  O          -6.142319            -5.643729            -6.610150            0            -0.597823    [8[6[1][1][1]][1]]                                          
  H          -6.328640            -5.442620            -7.501184            0             0.402573    [1[8[6]]]                                                   
  H          -4.130525            -5.985907            -6.044649            0             0.031932    [1[6[8][1][1]]]                                             
  H          -5.172011            -7.357734            -6.328079            0             0.031932    [1[6[8][1][1]]]                                             
  H          -4.478197            -6.584611            -7.685240            0             0.031932    [1[6[8][1][1]]]                                             
  C          -4.685835            -4.218706            -1.905755            1             0.099454    [6[8[1]][1][1][1]]                                          
  O          -5.620403            -4.875687            -1.045612            1            -0.597823    [8[6[1][1][1]][1]]                                          
  H          -6.175920            -5.416958            -1.549472            1             0.402573    [1[8[6]]]                                                   
  H          -3.776749            -4.781768            -1.666579            1             0.031932    [1[6[8][1][1]]]                                             
  H          -4.911927            -4.250010            -2.974445            1             0.031932    [1[6[8][1][1]]]                                             
  H          -4.583469            -3.144852            -1.605303            1             0.031932    [1[6[8][1][1]]]                                             
