12

  C           3.721256             2.865454             0.278842            0             0.099454    [6[8[1]][1][1][1]]                                          
  O           3.810652             4.224513             0.718855            0            -0.597823    [8[6[1][1][1]][1]]                                          
  H           3.847158             4.251311             1.654711            0             0.402573    [1[8[6]]]                                                   
  H           4.630489             2.337793             0.330650            0             0.031932    [1[6[8][1][1]]]                                             
  H           3.118835             2.213713             0.975832            0             0.031932    [1[6[8][1][1]]]                                             
  H           3.309772             2.784025            -0.718189            0             0.031932    [1[6[8][1][1]]]                                             
  C           4.556806             5.347333            -2.628685            1             0.099454    [6[8[1]][1][1][1]]                                          
  O           3.423993             5.475076            -1.851315            1            -0.597823    [8[6[1][1][1]][1]]                                          
  H           3.701064             5.189540            -1.017325            1             0.402573    [1[8[6]]]                                                   
  H           4.699981             6.061713            -3.358107            1             0.031932    [1[6[8][1][1]]]                                             
  H           5.501978             5.323743            -2.028070            1             0.031932    [1[6[8][1][1]]]                                             
  H           4.491684             4.380159            -3.170814            1             0.031932    [1[6[8][1][1]]]                                             
