12

  C          -1.936839            -7.101095            -2.876770            0             0.099454    [6[8[1]][1][1][1]]                                          
  O          -3.061484            -6.946725            -2.043370            0            -0.597823    [8[6[1][1][1]][1]]                                          
  H          -3.335684            -6.055807            -2.122500            0             0.402573    [1[8[6]]]                                                   
  H          -1.004453            -6.991422            -2.356135            0             0.031932    [1[6[8][1][1]]]                                             
  H          -1.884352            -8.095574            -3.432958            0             0.031932    [1[6[8][1][1]]]                                             
  H          -1.945391            -6.367581            -3.715468            0             0.031932    [1[6[8][1][1]]]                                             
  C          -2.954584            -6.359247            -7.681066            1             0.099454    [6[8[1]][1][1][1]]                                          
  O          -2.860629            -6.598741            -6.275569            1            -0.597823    [8[6[1][1][1]][1]]                                          
  H          -3.711140            -6.456979            -5.913500            1             0.402573    [1[8[6]]]                                                   
  H          -2.228339            -6.869746            -8.342924            1             0.031932    [1[6[8][1][1]]]                                             
  H          -4.042323            -6.698064            -7.901465            1             0.031932    [1[6[8][1][1]]]                                             
  H          -2.942604            -5.298880            -7.839737            1             0.031932    [1[6[8][1][1]]]                                             
