12

  C           7.403587            -9.978403             2.850823            0             0.099454    [6[8[1]][1][1][1]]                                          
  O           8.436868            -10.175592            3.819464            0            -0.597823    [8[6[1][1][1]][1]]                                          
  H           8.901432            -9.344453             3.760023            0             0.402573    [1[8[6]]]                                                   
  H           6.659822            -10.796634            2.741819            0             0.031932    [1[6[8][1][1]]]                                             
  H           6.753976            -9.111193             3.112570            0             0.031932    [1[6[8][1][1]]]                                             
  H           7.782467            -9.757799             1.881767            0             0.031932    [1[6[8][1][1]]]                                             
  C           6.153015            -5.292098             3.603107            1             0.099454    [6[8[1]][1][1][1]]                                          
  O           6.950715            -5.901456             2.651022            1            -0.597823    [8[6[1][1][1]][1]]                                          
  H           6.387861            -6.556969             2.128899            1             0.402573    [1[8[6]]]                                                   
  H           5.094600            -5.368703             3.263244            1             0.031932    [1[6[8][1][1]]]                                             
  H           6.258839            -5.732729             4.566604            1             0.031932    [1[6[8][1][1]]]                                             
  H           6.401723            -4.268254             3.740448            1             0.031932    [1[6[8][1][1]]]                                             
