12

  C          -2.546638             1.902959            -2.605679            0             0.099454    [6[8[1]][1][1][1]]                                          
  O          -2.598122             0.758630            -3.458367            0            -0.597823    [8[6[1][1][1]][1]]                                          
  H          -3.379653             0.987957            -4.003683            0             0.402573    [1[8[6]]]                                                   
  H          -2.358352             2.803489            -3.201803            0             0.031932    [1[6[8][1][1]]]                                             
  H          -3.498359             2.075437            -2.061589            0             0.031932    [1[6[8][1][1]]]                                             
  H          -1.772985             1.821890            -1.845222            0             0.031932    [1[6[8][1][1]]]                                             
  C          -3.389755            -0.935923            -6.500137            1             0.099454    [6[8[1]][1][1][1]]                                          
  O          -3.259672            -0.825678            -7.883029            1            -0.597823    [8[6[1][1][1]][1]]                                          
  H          -2.382912            -0.578327            -8.113036            1             0.402573    [1[8[6]]]                                                   
  H          -3.148542             0.079052            -5.986449            1             0.031932    [1[6[8][1][1]]]                                             
  H          -4.350042            -1.219182            -6.114905            1             0.031932    [1[6[8][1][1]]]                                             
  H          -2.645313            -1.593143            -6.048752            1             0.031932    [1[6[8][1][1]]]                                             
