12

  C           5.769253             2.723060            -5.358341            0             0.099454    [6[8[1]][1][1][1]]                                          
  O           4.814784             3.262569            -6.303090            0            -0.597823    [8[6[1][1][1]][1]]                                          
  H           4.560570             4.189452            -6.048641            0             0.402573    [1[8[6]]]                                                   
  H           5.512399             1.716891            -5.023752            0             0.031932    [1[6[8][1][1]]]                                             
  H           6.764949             2.673232            -5.826764            0             0.031932    [1[6[8][1][1]]]                                             
  H           5.846086             3.305604            -4.359895            0             0.031932    [1[6[8][1][1]]]                                             
  C           6.878222             1.563807            -2.144682            1             0.099454    [6[8[1]][1][1][1]]                                          
  O           6.443353             0.577420            -3.059159            1            -0.597823    [8[6[1][1][1]][1]]                                          
  H           7.212527             0.029790            -3.103457            1             0.402573    [1[8[6]]]                                                   
  H           7.575887             2.206588            -2.697307            1             0.031932    [1[6[8][1][1]]]                                             
  H           6.072569             2.190081            -1.762633            1             0.031932    [1[6[8][1][1]]]                                             
  H           7.382352             1.174466            -1.249020            1             0.031932    [1[6[8][1][1]]]                                             
