12

  C          -7.713229             4.227343            -0.511895            0             0.099454    [6[8[1]][1][1][1]]                                          
  O          -8.035849             5.574030            -0.400636            0            -0.597823    [8[6[1][1][1]][1]]                                          
  H          -8.691770             5.566973             0.273674            0             0.402573    [1[8[6]]]                                                   
  H          -8.487679             3.694594            -1.122684            0             0.031932    [1[6[8][1][1]]]                                             
  H          -6.772463             4.108117            -0.921444            0             0.031932    [1[6[8][1][1]]]                                             
  H          -7.696652             3.838080             0.479152            0             0.031932    [1[6[8][1][1]]]                                             
  C          -9.408338             5.775754            -4.331752            1             0.099454    [6[8[1]][1][1][1]]                                          
  O          -8.294528             5.564403            -3.557332            1            -0.597823    [8[6[1][1][1]][1]]                                          
  H          -8.577541             5.423824            -2.654749            1             0.402573    [1[8[6]]]                                                   
  H          -9.887024             6.745537            -4.154483            1             0.031932    [1[6[8][1][1]]]                                             
  H          -9.189584             5.665675            -5.387538            1             0.031932    [1[6[8][1][1]]]                                             
  H          -10.114420            5.036773            -4.122590            1             0.031932    [1[6[8][1][1]]]                                             
