12

  C          -6.008489            -4.587720            -4.525131            0             0.099454    [6[8[1]][1][1][1]]                                          
  O          -5.657151            -3.490434            -5.323309            0            -0.597823    [8[6[1][1][1]][1]]                                          
  H          -4.759430            -3.178681            -5.161051            0             0.402573    [1[8[6]]]                                                   
  H          -6.094564            -4.278882            -3.454936            0             0.031932    [1[6[8][1][1]]]                                             
  H          -6.943216            -4.900228            -4.978512            0             0.031932    [1[6[8][1][1]]]                                             
  H          -5.366793            -5.404057            -4.591604            0             0.031932    [1[6[8][1][1]]]                                             
  C          -5.979999            -2.665580            -8.492743            1             0.099454    [6[8[1]][1][1][1]]                                          
  O          -7.065190            -2.793098            -7.533047            1            -0.597823    [8[6[1][1][1]][1]]                                          
  H          -6.734265            -3.135389            -6.649309            1             0.402573    [1[8[6]]]                                                   
  H          -5.252455            -3.478849            -8.506391            1             0.031932    [1[6[8][1][1]]]                                             
  H          -6.339717            -2.428604            -9.499806            1             0.031932    [1[6[8][1][1]]]                                             
  H          -5.341708            -1.798120            -8.285072            1             0.031932    [1[6[8][1][1]]]                                             
