12

  C          -6.423069             5.566092             9.013381            0             0.099454    [6[8[1]][1][1][1]]                                          
  O          -6.490406             6.939785             8.703720            0            -0.597823    [8[6[1][1][1]][1]]                                          
  H          -5.816488             7.100692             8.090013            0             0.402573    [1[8[6]]]                                                   
  H          -7.316964             5.205827             9.520099            0             0.031932    [1[6[8][1][1]]]                                             
  H          -6.371598             4.942767             8.107187            0             0.031932    [1[6[8][1][1]]]                                             
  H          -5.565183             5.306817             9.669080            0             0.031932    [1[6[8][1][1]]]                                             
  C          -6.546840             0.074704             9.038280            1             0.099454    [6[8[1]][1][1][1]]                                          
  O          -6.336000             1.429750             8.808845            1            -0.597823    [8[6[1][1][1]][1]]                                          
  H          -5.428613             1.515341             8.559811            1             0.402573    [1[8[6]]]                                                   
  H          -7.109638            -0.391232             8.240486            1             0.031932    [1[6[8][1][1]]]                                             
  H          -5.589320            -0.496312             9.039589            1             0.031932    [1[6[8][1][1]]]                                             
  H          -7.081118            -0.070553             9.995042            1             0.031932    [1[6[8][1][1]]]                                             
