12

  C           5.509219            -5.286384            -2.629828            0             0.099454    [6[8[1]][1][1][1]]                                          
  O           6.356411            -4.322206            -3.312786            0            -0.597823    [8[6[1][1][1]][1]]                                          
  H           5.806492            -3.659072            -3.753185            0             0.402573    [1[8[6]]]                                                   
  H           4.710320            -5.785805            -3.279945            0             0.031932    [1[6[8][1][1]]]                                             
  H           6.199272            -6.152955            -2.356879            0             0.031932    [1[6[8][1][1]]]                                             
  H           4.910016            -4.863904            -1.771712            0             0.031932    [1[6[8][1][1]]]                                             
  C           4.063604            -4.164335             1.522662            1             0.099454    [6[8[1]][1][1][1]]                                          
  O           3.636612            -3.300503             0.440059            1            -0.597823    [8[6[1][1][1]][1]]                                          
  H           4.382438            -2.679649             0.364125            1             0.402573    [1[8[6]]]                                                   
  H           3.242593            -4.589483             2.142196            1             0.031932    [1[6[8][1][1]]]                                             
  H           4.763362            -5.016916             1.216015            1             0.031932    [1[6[8][1][1]]]                                             
  H           4.592937            -3.590968             2.334445            1             0.031932    [1[6[8][1][1]]]                                             
