12

  C           2.306363             7.977900            -7.049044            0             0.099454    [6[8[1]][1][1][1]]                                          
  O           3.680497             7.508819            -7.003539            0            -0.597823    [8[6[1][1][1]][1]]                                          
  H           3.822370             6.627895            -7.386926            0             0.402573    [1[8[6]]]                                                   
  H           2.324172             9.011762            -7.391483            0             0.031932    [1[6[8][1][1]]]                                             
  H           1.650519             7.439648            -7.782240            0             0.031932    [1[6[8][1][1]]]                                             
  H           1.747418             7.886337            -6.125104            0             0.031932    [1[6[8][1][1]]]                                             
  C           7.161267             6.953844            -6.328759            1             0.099454    [6[8[1]][1][1][1]]                                          
  O           6.565770             8.249048            -6.450163            1            -0.597823    [8[6[1][1][1]][1]]                                          
  H           5.623843             8.067112            -6.211825            1             0.402573    [1[8[6]]]                                                   
  H           8.046157             6.925746            -6.902645            1             0.031932    [1[6[8][1][1]]]                                             
  H           7.507824             6.780331            -5.271938            1             0.031932    [1[6[8][1][1]]]                                             
  H           6.447298             6.227622            -6.655698            1             0.031932    [1[6[8][1][1]]]                                             
