12

  C           3.632446            -6.994954             3.184119            0             0.099454    [6[8[1]][1][1][1]]                                          
  O           4.407674            -7.329784             1.949356            0            -0.597823    [8[6[1][1][1]][1]]                                          
  H           4.084722            -6.757850             1.277197            0             0.402573    [1[8[6]]]                                                   
  H           3.654814            -7.907382             3.783212            0             0.031932    [1[6[8][1][1]]]                                             
  H           4.085916            -6.202538             3.691906            0             0.031932    [1[6[8][1][1]]]                                             
  H           2.536765            -6.837212             2.963092            0             0.031932    [1[6[8][1][1]]]                                             
  C           7.870330            -9.516202             3.642286            1             0.099454    [6[8[1]][1][1][1]]                                          
  O           7.784803            -9.773389             5.046397            1            -0.597823    [8[6[1][1][1]][1]]                                          
  H           6.890367            -9.496004             5.288827            1             0.402573    [1[8[6]]]                                                   
  H           7.029758            -8.916929             3.367131            1             0.031932    [1[6[8][1][1]]]                                             
  H           8.824142            -9.213947             3.272093            1             0.031932    [1[6[8][1][1]]]                                             
  H           7.754524            -10.506116            3.127816            1             0.031932    [1[6[8][1][1]]]                                             
