12

  C           2.453454             1.166860            -5.874115            0             0.099454    [6[8[1]][1][1][1]]                                          
  O           3.686145             1.240109            -5.184784            0            -0.597823    [8[6[1][1][1]][1]]                                          
  H           3.920853             2.166736            -5.242162            0             0.402573    [1[8[6]]]                                                   
  H           1.624176             1.779049            -5.362332            0             0.031932    [1[6[8][1][1]]]                                             
  H           2.542419             1.779453            -6.767790            0             0.031932    [1[6[8][1][1]]]                                             
  H           2.112095             0.179773            -6.170195            0             0.031932    [1[6[8][1][1]]]                                             
  C           1.462838            -0.711124            -1.274654            1             0.099454    [6[8[1]][1][1][1]]                                          
  O           2.243322            -0.188704            -2.242712            1            -0.597823    [8[6[1][1][1]][1]]                                          
  H           1.745035             0.212361            -2.959952            1             0.402573    [1[8[6]]]                                                   
  H           1.293219            -0.079725            -0.462173            1             0.031932    [1[6[8][1][1]]]                                             
  H           0.480284            -1.107234            -1.686789            1             0.031932    [1[6[8][1][1]]]                                             
  H           1.961819            -1.640637            -0.787274            1             0.031932    [1[6[8][1][1]]]                                             
