12

  C          -4.428457             9.457185             6.975211            0             0.099454    [6[8[1]][1][1][1]]                                          
  O          -3.977799             8.276667             7.423609            0            -0.597823    [8[6[1][1][1]][1]]                                          
  H          -3.298247             8.485323             8.074216            0             0.402573    [1[8[6]]]                                                   
  H          -3.876182             10.238919            7.490986            0             0.031932    [1[6[8][1][1]]]                                             
  H          -4.354874             9.603095             5.907255            0             0.031932    [1[6[8][1][1]]]                                             
  H          -5.539428             9.552613             7.158782            0             0.031932    [1[6[8][1][1]]]                                             
  C          -6.367076             7.219084             4.384384            1             0.099454    [6[8[1]][1][1][1]]                                          
  O          -6.531146             5.884104             4.062090            1            -0.597823    [8[6[1][1][1]][1]]                                          
  H          -7.046276             5.471730             4.776969            1             0.402573    [1[8[6]]]                                                   
  H          -5.481634             7.619671             3.840341            1             0.031932    [1[6[8][1][1]]]                                             
  H          -7.226270             7.889155             4.174136            1             0.031932    [1[6[8][1][1]]]                                             
  H          -6.196221             7.273434             5.470295            1             0.031932    [1[6[8][1][1]]]                                             
