12

  C           1.734881             6.465670             2.421053            0             0.099454    [6[8[1]][1][1][1]]                                          
  O           2.634085             6.724561             1.380352            0            -0.597823    [8[6[1][1][1]][1]]                                          
  H           2.969693             5.856025             1.094452            0             0.402573    [1[8[6]]]                                                   
  H           0.869834             5.980634             1.995787            0             0.031932    [1[6[8][1][1]]]                                             
  H           2.162642             5.752771             3.164728            0             0.031932    [1[6[8][1][1]]]                                             
  H           1.436188             7.411125             2.924409            0             0.031932    [1[6[8][1][1]]]                                             
  C           4.295671             3.733466             0.817341            1             0.099454    [6[8[1]][1][1][1]]                                          
  O           2.897017             3.811469             0.464852            1            -0.597823    [8[6[1][1][1]][1]]                                          
  H           2.560319             3.075837             0.969836            1             0.402573    [1[8[6]]]                                                   
  H           4.950979             4.390941             0.274118            1             0.031932    [1[6[8][1][1]]]                                             
  H           4.439813             4.079853             1.906679            1             0.031932    [1[6[8][1][1]]]                                             
  H           4.730280             2.730398             0.723484            1             0.031932    [1[6[8][1][1]]]                                             
