12

  C          -2.287004            -7.105774            -7.763036            0             0.099454    [6[8[1]][1][1][1]]                                          
  O          -0.949285            -7.170664            -8.203545            0            -0.597823    [8[6[1][1][1]][1]]                                          
  H          -0.939735            -7.506460            -9.050222            0             0.402573    [1[8[6]]]                                                   
  H          -2.333886            -6.430946            -6.937260            0             0.031932    [1[6[8][1][1]]]                                             
  H          -2.922818            -6.617067            -8.546304            0             0.031932    [1[6[8][1][1]]]                                             
  H          -2.776979            -8.069040            -7.408969            0             0.031932    [1[6[8][1][1]]]                                             
  C          -0.126466            -7.668901            -4.868698            1             0.099454    [6[8[1]][1][1][1]]                                          
  O           0.538743            -8.388895            -5.905771            1            -0.597823    [8[6[1][1][1]][1]]                                          
  H           0.233319            -8.126804            -6.738606            1             0.402573    [1[8[6]]]                                                   
  H          -1.219544            -8.059974            -4.893778            1             0.031932    [1[6[8][1][1]]]                                             
  H           0.273618            -7.846774            -3.918215            1             0.031932    [1[6[8][1][1]]]                                             
  H          -0.142561            -6.508430            -5.077860            1             0.031932    [1[6[8][1][1]]]                                             
