12

  C          -5.503489            -1.823382            -3.854024            0             0.099454    [6[8[1]][1][1][1]]                                          
  O          -6.297757            -0.649085            -3.729353            0            -0.597823    [8[6[1][1][1]][1]]                                          
  H          -6.427129            -0.363208            -4.663941            0             0.402573    [1[8[6]]]                                                   
  H          -6.107571            -2.712703            -4.141055            0             0.031932    [1[6[8][1][1]]]                                             
  H          -4.877116            -1.810856            -4.734280            0             0.031932    [1[6[8][1][1]]]                                             
  H          -4.867101            -2.034921            -2.975977            0             0.031932    [1[6[8][1][1]]]                                             
  C          -9.021103            -2.447147            -2.266905            1             0.099454    [6[8[1]][1][1][1]]                                          
  O          -8.303614            -1.278762            -1.949975            1            -0.597823    [8[6[1][1][1]][1]]                                          
  H          -7.432322            -1.333857            -2.389903            1             0.402573    [1[8[6]]]                                                   
  H          -9.896593            -2.652528            -1.635555            1             0.031932    [1[6[8][1][1]]]                                             
  H          -9.254280            -2.464779            -3.357145            1             0.031932    [1[6[8][1][1]]]                                             
  H          -8.310638            -3.283385            -1.944165            1             0.031932    [1[6[8][1][1]]]                                             
