12

  C           8.915855            -6.208702             4.350031            0             0.099454    [6[8[1]][1][1][1]]                                          
  O           7.767237            -6.944024             4.488190            0            -0.597823    [8[6[1][1][1]][1]]                                          
  H           7.996220            -7.702451             5.042601            0             0.402573    [1[8[6]]]                                                   
  H           9.496857            -6.199584             5.282683            0             0.031932    [1[6[8][1][1]]]                                             
  H           9.538436            -6.503789             3.478665            0             0.031932    [1[6[8][1][1]]]                                             
  H           8.630338            -5.185743             4.188997            0             0.031932    [1[6[8][1][1]]]                                             
  C           5.828474            -4.478692             5.740824            1             0.099454    [6[8[1]][1][1][1]]                                          
  O           5.992873            -4.691048             4.348628            1            -0.597823    [8[6[1][1][1]][1]]                                          
  H           6.191507            -5.635749             4.191753            1             0.402573    [1[8[6]]]                                                   
  H           6.727600            -4.485124             6.268104            1             0.031932    [1[6[8][1][1]]]                                             
  H           5.386833            -3.495659             5.965815            1             0.031932    [1[6[8][1][1]]]                                             
  H           5.111332            -5.201312             6.076706            1             0.031932    [1[6[8][1][1]]]                                             
