12

  C           9.518140            -9.620616            -3.107383            0             0.099454    [6[8[1]][1][1][1]]                                          
  O           10.506839           -9.162423            -4.033828            0            -0.597823    [8[6[1][1][1]][1]]                                          
  H           10.192911           -8.597301            -4.716816            0             0.402573    [1[8[6]]]                                                   
  H           8.766802            -8.855435            -2.834577            0             0.031932    [1[6[8][1][1]]]                                             
  H           8.944407            -10.443229           -3.539903            0             0.031932    [1[6[8][1][1]]]                                             
  H           9.859461            -9.901562            -2.110812            0             0.031932    [1[6[8][1][1]]]                                             
  C           9.076317            -5.967435            -4.734897            1             0.099454    [6[8[1]][1][1][1]]                                          
  O           9.273547            -7.182211            -5.322843            1            -0.597823    [8[6[1][1][1]][1]]                                          
  H           8.842955            -7.318156            -6.125872            1             0.402573    [1[8[6]]]                                                   
  H           9.628322            -5.988942            -3.794146            1             0.031932    [1[6[8][1][1]]]                                             
  H           9.534314            -5.152722            -5.386626            1             0.031932    [1[6[8][1][1]]]                                             
  H           8.051998            -5.713673            -4.507228            1             0.031932    [1[6[8][1][1]]]                                             
