12

  C          -10.794103            7.923745            -0.381378            0             0.099454    [6[8[1]][1][1][1]]                                          
  O          -9.384621             8.224671            -0.537492            0            -0.597823    [8[6[1][1][1]][1]]                                          
  H          -8.927272             7.739375             0.112836            0             0.402573    [1[8[6]]]                                                   
  H          -11.348183            8.222421            -1.285125            0             0.031932    [1[6[8][1][1]]]                                             
  H          -10.884560            6.832683            -0.192969            0             0.031932    [1[6[8][1][1]]]                                             
  H          -11.337824            8.388577             0.464184            0             0.031932    [1[6[8][1][1]]]                                             
  C          -9.322901             11.078570           -2.047191            1             0.099454    [6[8[1]][1][1][1]]                                          
  O          -9.225321             9.984224            -2.949248            1            -0.597823    [8[6[1][1][1]][1]]                                          
  H          -9.121819             9.197441            -2.412125            1             0.402573    [1[8[6]]]                                                   
  H          -9.874648             10.829413           -1.138850            1             0.031932    [1[6[8][1][1]]]                                             
  H          -8.353701             11.301344           -1.708211            1             0.031932    [1[6[8][1][1]]]                                             
  H          -9.668864             11.916965           -2.614837            1             0.031932    [1[6[8][1][1]]]                                             
