12

  C          -2.321207            -5.271564            -0.117392            0             0.099454    [6[8[1]][1][1][1]]                                          
  O          -1.699948            -4.236620            -0.812064            0            -0.597823    [8[6[1][1][1]][1]]                                          
  H          -1.067507            -3.804357            -0.260356            0             0.402573    [1[8[6]]]                                                   
  H          -3.067091            -5.682834            -0.736439            0             0.031932    [1[6[8][1][1]]]                                             
  H          -1.643910            -6.077927             0.202816            0             0.031932    [1[6[8][1][1]]]                                             
  H          -2.851049            -4.806668             0.717258            0             0.031932    [1[6[8][1][1]]]                                             
  C          -3.851081            -1.093824            -2.794576            1             0.099454    [6[8[1]][1][1][1]]                                          
  O          -3.060111            -1.624212            -1.694422            1            -0.597823    [8[6[1][1][1]][1]]                                          
  H          -3.039155            -2.578958            -1.755241            1             0.402573    [1[8[6]]]                                                   
  H          -3.759878            -0.027850            -2.916973            1             0.031932    [1[6[8][1][1]]]                                             
  H          -3.478767            -1.509491            -3.727089            1             0.031932    [1[6[8][1][1]]]                                             
  H          -4.876227            -1.432638            -2.692189            1             0.031932    [1[6[8][1][1]]]                                             
