12

  C          -5.044066             0.404302            -1.663991            0             0.099454    [6[8[1]][1][1][1]]                                          
  O          -6.434132             0.548854            -1.331317            0            -0.597823    [8[6[1][1][1]][1]]                                          
  H          -6.609572             0.645943            -0.347889            0             0.402573    [1[8[6]]]                                                   
  H          -4.488674             1.043460            -0.975449            0             0.031932    [1[6[8][1][1]]]                                             
  H          -4.723905            -0.685298            -1.583405            0             0.031932    [1[6[8][1][1]]]                                             
  H          -4.810426             0.769304            -2.685732            0             0.031932    [1[6[8][1][1]]]                                             
  C          -6.242248            -0.142471             2.374967            1             0.099454    [6[8[1]][1][1][1]]                                          
  O          -6.795535             0.871142             1.528577            1            -0.597823    [8[6[1][1][1]][1]]                                          
  H          -6.086667             1.558375             1.634918            1             0.402573    [1[8[6]]]                                                   
  H          -7.005123            -0.500635             3.005440            1             0.031932    [1[6[8][1][1]]]                                             
  H          -5.854555            -0.967482             1.802231            1             0.031932    [1[6[8][1][1]]]                                             
  H          -5.386707             0.238985             2.896178            1             0.031932    [1[6[8][1][1]]]                                             
