12

  C          -4.029221             8.344015             5.610913            0             0.099454    [6[8[1]][1][1][1]]                                          
  O          -2.999871             7.977746             4.667712            0            -0.597823    [8[6[1][1][1]][1]]                                          
  H          -3.310125             8.320182             3.789893            0             0.402573    [1[8[6]]]                                                   
  H          -3.622109             8.473960             6.626864            0             0.031932    [1[6[8][1][1]]]                                             
  H          -4.597087             9.250479             5.314208            0             0.031932    [1[6[8][1][1]]]                                             
  H          -4.851451             7.575020             5.727861            0             0.031932    [1[6[8][1][1]]]                                             
  C          -4.286633             7.826120             1.492004            1             0.099454    [6[8[1]][1][1][1]]                                          
  O          -5.094304             8.659068             2.319935            1            -0.597823    [8[6[1][1][1]][1]]                                          
  H          -6.047964             8.445136             2.344196            1             0.402573    [1[8[6]]]                                                   
  H          -4.777304             7.440605             0.628035            1             0.031932    [1[6[8][1][1]]]                                             
  H          -3.385954             8.291319             1.218376            1             0.031932    [1[6[8][1][1]]]                                             
  H          -3.951033             6.945951             1.997395            1             0.031932    [1[6[8][1][1]]]                                             
