6

  C           3.694124             7.995513             5.908943            0             0.089063    [6[8[1]][1][1][1]]                                          
  O           2.954658             8.400406             7.073838            0            -0.604789    [8[6[1][1][1]][1]]                                          
  H           3.172963             9.317966             7.196407            0             0.406250    [1[8[6]]]                                                   
  H           4.740557             8.097598             6.159736            0             0.036492    [1[6[8][1][1]]]                                             
  H           3.484431             6.977610             5.685398            0             0.036492    [1[6[8][1][1]]]                                             
  H           3.384033             8.575208             5.018657            0             0.036492    [1[6[8][1][1]]]                                             
