6
Coordinates from ORCA-job 4_geo_opt
  C   3.01131906247544     -1.18092422166451      0.59858099338523
  O   4.39472167670764     -1.12801339690152      0.87427494121362
  H   4.77221685675849     -0.37899800818223      0.41244033573250
  H   2.80649507176690     -1.31895767307076     -0.46931192093146
  H   2.61209794055590     -2.04083989637916      1.13538756374972
  H   2.48526639173563     -0.28399180380182      0.94506008685041
