12

  C           8.138163             2.013779             8.440012            0             0.099454    [6[8[1]][1][1][1]]                                          
  O           8.449880             2.296050             7.073773            0            -0.597823    [8[6[1][1][1]][1]]                                          
  H           8.958610             1.573154             6.754095            0             0.402573    [1[8[6]]]                                                   
  H           7.680784             2.922407             8.860548            0             0.031932    [1[6[8][1][1]]]                                             
  H           7.458505             1.109173             8.484702            0             0.031932    [1[6[8][1][1]]]                                             
  H           9.035666             1.771950             8.988343            0             0.031932    [1[6[8][1][1]]]                                             
  C           8.255847             5.488541             10.299540           1             0.099454    [6[8[1]][1][1][1]]                                          
  O           9.442645             6.034434             9.838156            1            -0.597823    [8[6[1][1][1]][1]]                                          
  H           9.223365             6.371996             8.952072            1             0.402573    [1[8[6]]]                                                   
  H           7.598278             6.351766             10.589711           1             0.031932    [1[6[8][1][1]]]                                             
  H           7.655956             4.927146             9.615797            1             0.031932    [1[6[8][1][1]]]                                             
  H           8.317550             4.875409             11.204083           1             0.031932    [1[6[8][1][1]]]                                             
