12

  C          -4.658780            -2.037883             7.649658            0             0.099454    [6[8[1]][1][1][1]]                                          
  O          -5.337638            -1.572166             6.540238            0            -0.597823    [8[6[1][1][1]][1]]                                          
  H          -6.235660            -1.469603             6.901389            0             0.402573    [1[8[6]]]                                                   
  H          -3.612432            -1.652803             7.614765            0             0.031932    [1[6[8][1][1]]]                                             
  H          -5.188026            -1.588476             8.460927            0             0.031932    [1[6[8][1][1]]]                                             
  H          -4.629709            -3.094023             7.716798            0             0.031932    [1[6[8][1][1]]]                                             
  C          -8.330021            -3.936850             9.780098            1             0.099454    [6[8[1]][1][1][1]]                                          
  O          -7.082873            -4.366825             9.301597            1            -0.597823    [8[6[1][1][1]][1]]                                          
  H          -6.330123            -4.091510             9.880843            1             0.402573    [1[8[6]]]                                                   
  H          -9.113728            -4.603709             9.450616            1             0.031932    [1[6[8][1][1]]]                                             
  H          -8.289771            -4.009567             10.862791           1             0.031932    [1[6[8][1][1]]]                                             
  H          -8.578552            -2.883557             9.468591            1             0.031932    [1[6[8][1][1]]]                                             
