12

  C          -5.946883            -9.520934             1.759639            0             0.099454    [6[8[1]][1][1][1]]                                          
  O          -6.152325            -8.209981             1.137781            0            -0.597823    [8[6[1][1][1]][1]]                                          
  H          -5.894557            -8.237036             0.209221            0             0.402573    [1[8[6]]]                                                   
  H          -6.016455            -9.419049             2.892615            0             0.031932    [1[6[8][1][1]]]                                             
  H          -6.762526            -10.186639            1.465938            0             0.031932    [1[6[8][1][1]]]                                             
  H          -4.976280            -9.949934             1.473576            0             0.031932    [1[6[8][1][1]]]                                             
  C          -6.229169            -5.605848             3.649831            1             0.099454    [6[8[1]][1][1][1]]                                          
  O          -6.486129            -5.657773             2.254109            1            -0.597823    [8[6[1][1][1]][1]]                                          
  H          -6.061267            -6.372344             1.832964            1             0.402573    [1[8[6]]]                                                   
  H          -5.270334            -5.238399             3.993347            1             0.031932    [1[6[8][1][1]]]                                             
  H          -7.008296            -5.020978             4.148391            1             0.031932    [1[6[8][1][1]]]                                             
  H          -6.485685            -6.561689             4.106326            1             0.031932    [1[6[8][1][1]]]                                             
