12

  C           5.736915             6.096399            -5.489844            0             0.099454    [6[8[1]][1][1][1]]                                          
  O           5.154897             4.938208            -6.015251            0            -0.597823    [8[6[1][1][1]][1]]                                          
  H           5.492586             4.122501            -5.681083            0             0.402573    [1[8[6]]]                                                   
  H           5.357355             6.307799            -4.486453            0             0.031932    [1[6[8][1][1]]]                                             
  H           6.834772             6.055645            -5.421734            0             0.031932    [1[6[8][1][1]]]                                             
  H           5.315370             6.965713            -6.146136            0             0.031932    [1[6[8][1][1]]]                                             
  C           9.562394             5.317390            -3.527046            1             0.099454    [6[8[1]][1][1][1]]                                          
  O           8.176050             5.117132            -3.243014            1            -0.597823    [8[6[1][1][1]][1]]                                          
  H           7.870844             5.866545            -2.744694            1             0.402573    [1[8[6]]]                                                   
  H           9.716728             5.812961            -4.484793            1             0.031932    [1[6[8][1][1]]]                                             
  H           10.097111            5.912034            -2.712506            1             0.031932    [1[6[8][1][1]]]                                             
  H           10.143364            4.380377            -3.546100            1             0.031932    [1[6[8][1][1]]]                                             
