6

  C           5.314290            -3.542815             0.803685            0             0.089063    [6[8[1]][1][1][1]]                                          
  O           4.980352            -3.512486            -0.559765            0            -0.604789    [8[6[1][1][1]][1]]                                          
  H           5.180720            -4.375270            -0.967361            0             0.406250    [1[8[6]]]                                                   
  H           4.765035            -2.724252             1.268303            0             0.036492    [1[6[8][1][1]]]                                             
  H           4.921294            -4.427538             1.209492            0             0.036492    [1[6[8][1][1]]]                                             
  H           6.469973            -3.450706             0.932593            0             0.036492    [1[6[8][1][1]]]                                             
