12

  C           10.097442           -11.021088            4.792170            0             0.099454    [6[8[1]][1][1][1]]                                          
  O           9.797004            -10.184872            3.709985            0            -0.597823    [8[6[1][1][1]][1]]                                          
  H           10.061023           -9.304137             3.936101            0             0.402573    [1[8[6]]]                                                   
  H           10.118877           -12.027282            4.441475            0             0.031932    [1[6[8][1][1]]]                                             
  H           11.067215           -10.924921            5.229111            0             0.031932    [1[6[8][1][1]]]                                             
  H           9.389762            -10.964575            5.682178            0             0.031932    [1[6[8][1][1]]]                                             
  C           10.067220           -10.126056            8.007555            1             0.099454    [6[8[1]][1][1][1]]                                          
  O           9.600508            -8.787866             8.100690            1            -0.597823    [8[6[1][1][1]][1]]                                          
  H           9.342349            -8.601194             9.016591            1             0.402573    [1[8[6]]]                                                   
  H           9.295963            -10.797208            8.353446            1             0.031932    [1[6[8][1][1]]]                                             
  H           10.328092           -10.365292            7.022517            1             0.031932    [1[6[8][1][1]]]                                             
  H           10.911756           -10.240469            8.686770            1             0.031932    [1[6[8][1][1]]]                                             
