12

  C          -2.881200             5.269052             1.066537            0             0.099454    [6[8[1]][1][1][1]]                                          
  O          -2.445104             4.075524             0.341486            0            -0.597823    [8[6[1][1][1]][1]]                                          
  H          -2.756895             4.205874            -0.534556            0             0.402573    [1[8[6]]]                                                   
  H          -3.832270             5.165989             1.402556            0             0.031932    [1[6[8][1][1]]]                                             
  H          -2.191036             5.618454             1.900053            0             0.031932    [1[6[8][1][1]]]                                             
  H          -2.957396             6.094008             0.292697            0             0.031932    [1[6[8][1][1]]]                                             
  C          -0.021919             8.009453             2.783988            1             0.099454    [6[8[1]][1][1][1]]                                          
  O          -0.528219             7.199774             3.833651            1            -0.597823    [8[6[1][1][1]][1]]                                          
  H           0.125578             6.504699             4.084652            1             0.402573    [1[8[6]]]                                                   
  H           0.915588             8.444604             3.152632            1             0.031932    [1[6[8][1][1]]]                                             
  H           0.145282             7.447361             1.830952            1             0.031932    [1[6[8][1][1]]]                                             
  H          -0.773289             8.872872             2.476492            1             0.031932    [1[6[8][1][1]]]                                             
