12

  C           0.496941             1.392049             5.026981            0             0.099454    [6[8[1]][1][1][1]]                                          
  O          -0.494197             0.337308             5.082726            0            -0.597823    [8[6[1][1][1]][1]]                                          
  H          -0.689183             0.394878             4.127763            0             0.402573    [1[8[6]]]                                                   
  H           1.282604             1.248695             5.776744            0             0.031932    [1[6[8][1][1]]]                                             
  H           1.032644             1.416140             4.066925            0             0.031932    [1[6[8][1][1]]]                                             
  H          -0.013328             2.353019             5.225455            0             0.031932    [1[6[8][1][1]]]                                             
  C           3.486480             3.228859             8.221319            1             0.099454    [6[8[1]][1][1][1]]                                          
  O           2.522415             3.169753             7.171578            1            -0.597823    [8[6[1][1][1]][1]]                                          
  H           2.924334             3.012917             6.317033            1             0.402573    [1[8[6]]]                                                   
  H           3.112496             2.768738             9.151670            1             0.031932    [1[6[8][1][1]]]                                             
  H           4.386893             2.667311             8.000667            1             0.031932    [1[6[8][1][1]]]                                             
  H           3.835800             4.237860             8.215932            1             0.031932    [1[6[8][1][1]]]                                             
