12

  C          -6.546840             0.074704             9.038280            0             0.099454    [6[8[1]][1][1][1]]                                          
  O          -6.336000             1.429750             8.808845            0            -0.597823    [8[6[1][1][1]][1]]                                          
  H          -5.428613             1.515341             8.559811            0             0.402573    [1[8[6]]]                                                   
  H          -7.109638            -0.391232             8.240486            0             0.031932    [1[6[8][1][1]]]                                             
  H          -5.589320            -0.496312             9.039589            0             0.031932    [1[6[8][1][1]]]                                             
  H          -7.081118            -0.070553             9.995042            0             0.031932    [1[6[8][1][1]]]                                             
  C          -5.166520            -2.157854             5.731922            1             0.099454    [6[8[1]][1][1][1]]                                          
  O          -4.352424            -2.878573             4.845293            1            -0.597823    [8[6[1][1][1]][1]]                                          
  H          -4.531012            -2.479481             4.001761            1             0.402573    [1[8[6]]]                                                   
  H          -6.255409            -2.274834             5.542018            1             0.031932    [1[6[8][1][1]]]                                             
  H          -4.978157            -2.425634             6.797351            1             0.031932    [1[6[8][1][1]]]                                             
  H          -5.056658            -1.138531             5.729317            1             0.031932    [1[6[8][1][1]]]                                             
