12

  C           3.247965            -4.559031            -0.450661            0             0.099454    [6[8[1]][1][1][1]]                                          
  O           3.082228            -5.100131             0.833028            0            -0.597823    [8[6[1][1][1]][1]]                                          
  H           3.428484            -4.516003             1.598931            0             0.402573    [1[8[6]]]                                                   
  H           2.833958            -5.230700            -1.176977            0             0.031932    [1[6[8][1][1]]]                                             
  H           2.781872            -3.575299            -0.586808            0             0.031932    [1[6[8][1][1]]]                                             
  H           4.333572            -4.378047            -0.637821            0             0.031932    [1[6[8][1][1]]]                                             
  C           7.824149            -6.541782            -2.938392            1             0.099454    [6[8[1]][1][1][1]]                                          
  O           6.838613            -6.343580            -3.974668            1            -0.597823    [8[6[1][1][1]][1]]                                          
  H           6.273689            -7.114405            -3.803424            1             0.402573    [1[8[6]]]                                                   
  H           8.641501            -7.009749            -3.332158            1             0.031932    [1[6[8][1][1]]]                                             
  H           8.094999            -5.546398            -2.500354            1             0.031932    [1[6[8][1][1]]]                                             
  H           7.388448            -7.062077            -2.040342            1             0.031932    [1[6[8][1][1]]]                                             
