12

  C          -1.759558            -3.697240             10.473655           0             0.099454    [6[8[1]][1][1][1]]                                          
  O          -1.814703            -2.791501             9.446395            0            -0.597823    [8[6[1][1][1]][1]]                                          
  H          -1.493921            -1.963915             9.817831            0             0.402573    [1[8[6]]]                                                   
  H          -0.839036            -3.765161             10.942798           0             0.031932    [1[6[8][1][1]]]                                             
  H          -2.437705            -3.484567             11.215743           0             0.031932    [1[6[8][1][1]]]                                             
  H          -1.906414            -4.658250             10.028213           0             0.031932    [1[6[8][1][1]]]                                             
  C           0.404256            -2.421285             6.257709            1             0.099454    [6[8[1]][1][1][1]]                                          
  O          -0.117990            -3.404198             7.145016            1            -0.597823    [8[6[1][1][1]][1]]                                          
  H          -0.354279            -3.007264             7.988121            1             0.402573    [1[8[6]]]                                                   
  H           1.466461            -2.287587             6.424802            1             0.031932    [1[6[8][1][1]]]                                             
  H           0.067196            -2.692540             5.254666            1             0.031932    [1[6[8][1][1]]]                                             
  H          -0.059025            -1.418658             6.470274            1             0.031932    [1[6[8][1][1]]]                                             
