14

Cl  3.33135000          -1.65271000          -0.12194000         
C  2.78763000           0.02738000           0.11345000         
C  3.37424000           0.92645000          -0.97365000         
C  2.92221000           2.37955000          -0.78996000         
C  3.50329000           3.27727000          -1.88115000         
Cl  2.96568000           4.95875000          -1.64168000         
H  3.11958000           0.37089000           1.11640000         
H  1.67768000           0.05052000           0.07213000         
H  3.04016000           0.55740000          -1.96826000         
H  4.48440000           0.87610000          -0.92702000         
H  3.26051000           2.74907000           0.20311000         
H  1.81195000           2.43039000          -0.83212000         
H  3.16219000           2.93440000          -2.88131000         
H  4.61342000           3.25135000          -1.84900000         
