12

  C          -6.296488             0.198913             2.792889            0             0.099454    [6[8[1]][1][1][1]]                                          
  O          -6.461516            -0.521665             1.555688            0            -0.597823    [8[6[1][1][1]][1]]                                          
  H          -5.961074            -1.353102             1.626890            0             0.402573    [1[8[6]]]                                                   
  H          -6.761771            -0.381322             3.663012            0             0.031932    [1[6[8][1][1]]]                                             
  H          -5.261582             0.262228             3.149411            0             0.031932    [1[6[8][1][1]]]                                             
  H          -6.779186             1.233509             2.736756            0             0.031932    [1[6[8][1][1]]]                                             
  C          -4.602138             1.634884             6.062380            1             0.099454    [6[8[1]][1][1][1]]                                          
  O          -5.510830             2.685958             5.751689            1            -0.597823    [8[6[1][1][1]][1]]                                          
  H          -5.954040             2.791662             6.614522            1             0.402573    [1[8[6]]]                                                   
  H          -5.100692             0.938811             6.756365            1             0.031932    [1[6[8][1][1]]]                                             
  H          -4.443054             0.931583             5.176692            1             0.031932    [1[6[8][1][1]]]                                             
  H          -3.641260             1.881957             6.524378            1             0.031932    [1[6[8][1][1]]]                                             
