12

  C           7.735640            -3.628557            -5.394134            0             0.099454    [6[8[1]][1][1][1]]                                          
  O           6.374040            -3.628548            -5.142410            0            -0.597823    [8[6[1][1][1]][1]]                                          
  H           5.933957            -4.477045            -5.105908            0             0.402573    [1[8[6]]]                                                   
  H           8.304852            -3.877057            -4.570331            0             0.031932    [1[6[8][1][1]]]                                             
  H           7.857922            -4.475036            -6.074864            0             0.031932    [1[6[8][1][1]]]                                             
  H           8.076524            -2.769222            -5.967372            0             0.031932    [1[6[8][1][1]]]                                             
  C           8.555876            -5.023468            -2.085604            1             0.099454    [6[8[1]][1][1][1]]                                          
  O           9.597576            -5.817501            -1.599137            1            -0.597823    [8[6[1][1][1]][1]]                                          
  H           10.014008           -5.365580            -0.897390            1             0.402573    [1[8[6]]]                                                   
  H           7.789222            -4.795281            -1.346501            1             0.031932    [1[6[8][1][1]]]                                             
  H           8.845916            -4.068275            -2.582090            1             0.031932    [1[6[8][1][1]]]                                             
  H           8.075075            -5.507060            -2.944996            1             0.031932    [1[6[8][1][1]]]                                             
