12

  C           0.458656            -0.930274            -4.011846            0             0.099454    [6[8[1]][1][1][1]]                                          
  O           1.515919            -0.989407            -3.097757            0            -0.597823    [8[6[1][1][1]][1]]                                          
  H           2.343066            -1.128490            -3.561394            0             0.402573    [1[8[6]]]                                                   
  H           0.659038            -0.054227            -4.714166            0             0.031932    [1[6[8][1][1]]]                                             
  H           0.496070            -1.799020            -4.676867            0             0.031932    [1[6[8][1][1]]]                                             
  H          -0.554769            -0.926448            -3.628725            0             0.031932    [1[6[8][1][1]]]                                             
  C           3.282959            -1.182157            -6.440100            1             0.099454    [6[8[1]][1][1][1]]                                          
  O           3.648288            -1.701234            -5.111247            1            -0.597823    [8[6[1][1][1]][1]]                                          
  H           4.038148            -2.570260            -5.268204            1             0.402573    [1[8[6]]]                                                   
  H           3.870765            -0.329049            -6.677919            1             0.031932    [1[6[8][1][1]]]                                             
  H           3.429946            -1.968021            -7.207339            1             0.031932    [1[6[8][1][1]]]                                             
  H           2.192807            -0.973335            -6.479095            1             0.031932    [1[6[8][1][1]]]                                             
