12

  C          -6.458469            -3.853157             5.668756            0             0.099454    [6[8[1]][1][1][1]]                                          
  O          -5.954118            -2.567601             5.797055            0            -0.597823    [8[6[1][1][1]][1]]                                          
  H          -5.596299            -2.542622             6.664527            0             0.402573    [1[8[6]]]                                                   
  H          -5.718393            -4.654806             5.507057            0             0.031932    [1[6[8][1][1]]]                                             
  H          -7.068729            -4.054793             6.565655            0             0.031932    [1[6[8][1][1]]]                                             
  H          -7.142532            -3.924927             4.806965            0             0.031932    [1[6[8][1][1]]]                                             
  C          -7.231096             0.734802             6.355933            1             0.099454    [6[8[1]][1][1][1]]                                          
  O          -7.747945            -0.137764             5.435867            1            -0.597823    [8[6[1][1][1]][1]]                                          
  H          -7.369196            -1.030215             5.518210            1             0.402573    [1[8[6]]]                                                   
  H          -6.828257             0.153118             7.179129            1             0.031932    [1[6[8][1][1]]]                                             
  H          -6.361936             1.306457             6.030149            1             0.031932    [1[6[8][1][1]]]                                             
  H          -7.932546             1.299147             6.803414            1             0.031932    [1[6[8][1][1]]]                                             
