12

  C          -2.983319             7.102537            -11.299652           0             0.099454    [6[8[1]][1][1][1]]                                          
  O          -2.250122             7.888422            -10.348994           0            -0.597823    [8[6[1][1][1]][1]]                                          
  H          -2.956250             8.479641            -10.004747           0             0.402573    [1[8[6]]]                                                   
  H          -2.905947             6.096993            -10.950046           0             0.031932    [1[6[8][1][1]]]                                             
  H          -4.085312             7.291755            -11.297916           0             0.031932    [1[6[8][1][1]]]                                             
  H          -2.581351             7.153413            -12.315801           0             0.031932    [1[6[8][1][1]]]                                             
  C          -3.552639             8.396486            -7.628908            1             0.099454    [6[8[1]][1][1][1]]                                          
  O          -3.940402             9.207933            -8.764024            1            -0.597823    [8[6[1][1][1]][1]]                                          
  H          -4.631707             9.834041            -8.526227            1             0.402573    [1[8[6]]]                                                   
  H          -3.507210             7.368370            -7.850899            1             0.031932    [1[6[8][1][1]]]                                             
  H          -2.618152             8.815532            -7.231517            1             0.031932    [1[6[8][1][1]]]                                             
  H          -4.329217             8.366643            -6.816339            1             0.031932    [1[6[8][1][1]]]                                             
