12

  C           6.459684             2.625476            -5.733349            0             0.099454    [6[8[1]][1][1][1]]                                          
  O           5.669296             1.772671            -6.552629            0            -0.597823    [8[6[1][1][1]][1]]                                          
  H           4.759688             1.963351            -6.356221            0             0.402573    [1[8[6]]]                                                   
  H           6.406761             2.293092            -4.689490            0             0.031932    [1[6[8][1][1]]]                                             
  H           7.541756             2.639299            -5.944496            0             0.031932    [1[6[8][1][1]]]                                             
  H           6.294017             3.691201            -5.920072            0             0.031932    [1[6[8][1][1]]]                                             
  C           8.279179            -0.130708            -6.836985            1             0.099454    [6[8[1]][1][1][1]]                                          
  O           6.940537            -0.687971            -6.867043            1            -0.597823    [8[6[1][1][1]][1]]                                          
  H           6.345890             0.019245            -6.580589            1             0.402573    [1[8[6]]]                                                   
  H           8.565146             0.242757            -5.816725            1             0.031932    [1[6[8][1][1]]]                                             
  H           9.006354            -0.914377            -7.006050            1             0.031932    [1[6[8][1][1]]]                                             
  H           8.455786             0.688963            -7.595596            1             0.031932    [1[6[8][1][1]]]                                             
