12

  C          -2.222377            -9.165229            -5.734418            0             0.099454    [6[8[1]][1][1][1]]                                          
  O          -1.041588            -9.092182            -6.516666            0            -0.597823    [8[6[1][1][1]][1]]                                          
  H          -0.308865            -9.269490            -5.964832            0             0.402573    [1[8[6]]]                                                   
  H          -2.538768            -10.195934           -5.512925            0             0.031932    [1[6[8][1][1]]]                                             
  H          -2.087220            -8.802993            -4.707319            0             0.031932    [1[6[8][1][1]]]                                             
  H          -3.014672            -8.630073            -6.223898            0             0.031932    [1[6[8][1][1]]]                                             
  C          -1.598563            -9.849119            -9.847761            1             0.099454    [6[8[1]][1][1][1]]                                          
  O          -0.639537            -9.069205            -9.064952            1            -0.597823    [8[6[1][1][1]][1]]                                          
  H          -0.058667            -8.743097            -9.773553            1             0.402573    [1[8[6]]]                                                   
  H          -1.098768            -10.673463           -10.308640           1             0.031932    [1[6[8][1][1]]]                                             
  H          -2.440803            -10.122738           -9.114453            1             0.031932    [1[6[8][1][1]]]                                             
  H          -2.006305            -9.237265            -10.643936           1             0.031932    [1[6[8][1][1]]]                                             
