12

  C          -2.795325             9.217840             5.555766            0             0.099454    [6[8[1]][1][1][1]]                                          
  O          -3.946272             9.686863             6.213946            0            -0.597823    [8[6[1][1][1]][1]]                                          
  H          -3.969267             9.351075             7.120477            0             0.402573    [1[8[6]]]                                                   
  H          -2.991524             9.209093             4.464861            0             0.031932    [1[6[8][1][1]]]                                             
  H          -1.885058             9.769403             5.855998            0             0.031932    [1[6[8][1][1]]]                                             
  H          -2.593840             8.207868             5.831886            0             0.031932    [1[6[8][1][1]]]                                             
  C          -5.980613             7.120034             8.240921            1             0.099454    [6[8[1]][1][1][1]]                                          
  O          -6.503045             7.926275             9.288026            1            -0.597823    [8[6[1][1][1]][1]]                                          
  H          -5.881209             8.004546             9.989049            1             0.402573    [1[8[6]]]                                                   
  H          -6.668404             6.970982             7.350147            1             0.031932    [1[6[8][1][1]]]                                             
  H          -5.030610             7.453998             7.889338            1             0.031932    [1[6[8][1][1]]]                                             
  H          -5.813076             6.068493             8.513422            1             0.031932    [1[6[8][1][1]]]                                             
