12

  C           4.888409             3.253564             1.564337            0             0.099454    [6[8[1]][1][1][1]]                                          
  O           3.677006             2.583596             1.661210            0            -0.597823    [8[6[1][1][1]][1]]                                          
  H           3.206091             3.184549             2.313653            0             0.402573    [1[8[6]]]                                                   
  H           4.815171             4.370015             1.276239            0             0.031932    [1[6[8][1][1]]]                                             
  H           5.420325             3.232220             2.517922            0             0.031932    [1[6[8][1][1]]]                                             
  H           5.548820             2.761538             0.826897            0             0.031932    [1[6[8][1][1]]]                                             
  C           5.481256            -1.407273             4.218464            1             0.099454    [6[8[1]][1][1][1]]                                          
  O           6.513716            -0.468598             3.930970            1            -0.597823    [8[6[1][1][1]][1]]                                          
  H           6.753856            -0.454493             2.972972            1             0.402573    [1[8[6]]]                                                   
  H           4.562116            -1.173719             3.595068            1             0.031932    [1[6[8][1][1]]]                                             
  H           5.845819            -2.467576             4.115695            1             0.031932    [1[6[8][1][1]]]                                             
  H           5.098624            -1.292194             5.239379            1             0.031932    [1[6[8][1][1]]]                                             
