6

  C          -3.728019             6.509154             7.813817            0             0.089063    [6[8[1]][1][1][1]]                                          
  O          -2.781509             5.907698             6.923639            0            -0.604789    [8[6[1][1][1]][1]]                                          
  H          -2.932746             4.986791             7.058936            0             0.406250    [1[8[6]]]                                                   
  H          -4.716102             6.091412             7.527722            0             0.036492    [1[6[8][1][1]]]                                             
  H          -3.488489             6.303997             8.862452            0             0.036492    [1[6[8][1][1]]]                                             
  H          -3.680288             7.632725             7.729026            0             0.036492    [1[6[8][1][1]]]                                             
