12

  C          -3.318311            -0.619609            -4.975786            0             0.099454    [6[8[1]][1][1][1]]                                          
  O          -2.848868            -0.188945            -3.711665            0            -0.597823    [8[6[1][1][1]][1]]                                          
  H          -2.709265             0.711760            -3.772373            0             0.402573    [1[8[6]]]                                                   
  H          -2.662649            -0.195860            -5.703031            0             0.031932    [1[6[8][1][1]]]                                             
  H          -3.228268            -1.702189            -5.124246            0             0.031932    [1[6[8][1][1]]]                                             
  H          -4.392851            -0.308560            -5.145854            0             0.031932    [1[6[8][1][1]]]                                             
  C           0.458656            -0.930274            -4.011846            1             0.099454    [6[8[1]][1][1][1]]                                          
  O           1.515919            -0.989407            -3.097757            1            -0.597823    [8[6[1][1][1]][1]]                                          
  H           2.343066            -1.128490            -3.561394            1             0.402573    [1[8[6]]]                                                   
  H           0.659038            -0.054227            -4.714166            1             0.031932    [1[6[8][1][1]]]                                             
  H           0.496070            -1.799020            -4.676867            1             0.031932    [1[6[8][1][1]]]                                             
  H          -0.554769            -0.926448            -3.628725            1             0.031932    [1[6[8][1][1]]]                                             
