12

  C           2.263257            -4.148155             5.412082            0             0.099454    [6[8[1]][1][1][1]]                                          
  O           2.954997            -4.750595             6.535683            0            -0.597823    [8[6[1][1][1]][1]]                                          
  H           3.854224            -4.751128             6.203519            0             0.402573    [1[8[6]]]                                                   
  H           2.189910            -3.055356             5.686844            0             0.031932    [1[6[8][1][1]]]                                             
  H           2.686634            -4.323060             4.395248            0             0.031932    [1[6[8][1][1]]]                                             
  H           1.297417            -4.690642             5.387383            0             0.031932    [1[6[8][1][1]]]                                             
  C           4.066986            -8.339112             6.248650            1             0.099454    [6[8[1]][1][1][1]]                                          
  O           4.629297            -9.524087             5.705682            1            -0.597823    [8[6[1][1][1]][1]]                                          
  H           4.602639            -10.203734            6.382518            1             0.402573    [1[8[6]]]                                                   
  H           4.664604            -7.882240             6.979995            1             0.031932    [1[6[8][1][1]]]                                             
  H           3.936144            -7.518399             5.467593            1             0.031932    [1[6[8][1][1]]]                                             
  H           3.111295            -8.558080             6.600876            1             0.031932    [1[6[8][1][1]]]                                             
