12

  C          -8.719428            -0.806688             2.256153            0             0.099454    [6[8[1]][1][1][1]]                                          
  O          -10.041191           -1.234781             2.494380            0            -0.597823    [8[6[1][1][1]][1]]                                          
  H          -10.144787           -1.521010             3.361301            0             0.402573    [1[8[6]]]                                                   
  H          -8.220031            -0.383521             3.209562            0             0.031932    [1[6[8][1][1]]]                                             
  H          -8.128405            -1.587988             1.732554            0             0.031932    [1[6[8][1][1]]]                                             
  H          -8.726105             0.059084             1.528395            0             0.031932    [1[6[8][1][1]]]                                             
  C          -7.625825            -2.118438             6.216507            1             0.099454    [6[8[1]][1][1][1]]                                          
  O          -6.382549            -1.543956             6.599083            1            -0.597823    [8[6[1][1][1]][1]]                                          
  H          -6.301052            -0.573742             6.507122            1             0.402573    [1[8[6]]]                                                   
  H          -7.759299            -3.193026             6.659678            1             0.031932    [1[6[8][1][1]]]                                             
  H          -8.447343            -1.473519             6.457667            1             0.031932    [1[6[8][1][1]]]                                             
  H          -7.672048            -2.337438             5.139044            1             0.031932    [1[6[8][1][1]]]                                             
