12

  C          -5.982742            -6.095501             1.316982            0             0.099454    [6[8[1]][1][1][1]]                                          
  O          -6.760569            -4.916011             1.577320            0            -0.597823    [8[6[1][1][1]][1]]                                          
  H          -6.135223            -4.206989             1.780978            0             0.402573    [1[8[6]]]                                                   
  H          -5.438071            -6.346295             2.215708            0             0.031932    [1[6[8][1][1]]]                                             
  H          -6.528076            -6.986041             1.068226            0             0.031932    [1[6[8][1][1]]]                                             
  H          -5.230619            -5.928635             0.561390            0             0.031932    [1[6[8][1][1]]]                                             
  C          -9.583994            -5.979449            -1.643900            1             0.099454    [6[8[1]][1][1][1]]                                          
  O          -8.777595            -7.054590            -2.124363            1            -0.597823    [8[6[1][1][1]][1]]                                          
  H          -9.152976            -7.893258            -1.786761            1             0.402573    [1[8[6]]]                                                   
  H          -10.655389           -6.277400            -1.640308            1             0.031932    [1[6[8][1][1]]]                                             
  H          -9.376461            -5.652733            -0.626942            1             0.031932    [1[6[8][1][1]]]                                             
  H          -9.621946            -5.123964            -2.274368            1             0.031932    [1[6[8][1][1]]]                                             
