12

  C          -2.909087            -1.969851            -1.924038            0             0.099454    [6[8[1]][1][1][1]]                                          
  O          -2.827686            -3.108893            -1.172780            0            -0.597823    [8[6[1][1][1]][1]]                                          
  H          -1.951877            -3.521882            -1.234771            0             0.402573    [1[8[6]]]                                                   
  H          -2.236090            -1.175061            -1.514189            0             0.031932    [1[6[8][1][1]]]                                             
  H          -2.615819            -2.207722            -2.943105            0             0.031932    [1[6[8][1][1]]]                                             
  H          -3.949701            -1.615946            -1.922414            0             0.031932    [1[6[8][1][1]]]                                             
  C          -5.565348            -5.308290            -1.212802            1             0.099454    [6[8[1]][1][1][1]]                                          
  O          -5.107772            -4.714714            -0.003412            1            -0.597823    [8[6[1][1][1]][1]]                                          
  H          -4.372624            -4.159267            -0.341597            1             0.402573    [1[8[6]]]                                                   
  H          -6.090459            -6.296577            -1.036220            1             0.031932    [1[6[8][1][1]]]                                             
  H          -6.187240            -4.601557            -1.731719            1             0.031932    [1[6[8][1][1]]]                                             
  H          -4.713050            -5.544648            -1.891094            1             0.031932    [1[6[8][1][1]]]                                             
