12

  C          -1.495863            -7.793966             2.578970            0             0.099454    [6[8[1]][1][1][1]]                                          
  O          -0.483908            -8.710435             2.830056            0            -0.597823    [8[6[1][1][1]][1]]                                          
  H          -0.539122            -8.859072             3.780533            0             0.402573    [1[8[6]]]                                                   
  H          -1.316843            -6.805620             3.074040            0             0.031932    [1[6[8][1][1]]]                                             
  H          -1.618548            -7.589966             1.567328            0             0.031932    [1[6[8][1][1]]]                                             
  H          -2.421022            -8.112278             2.983919            0             0.031932    [1[6[8][1][1]]]                                             
  C          -1.361220            -9.741524             6.293750            1             0.099454    [6[8[1]][1][1][1]]                                          
  O          -0.034142            -9.636347             5.624788            1            -0.597823    [8[6[1][1][1]][1]]                                          
  H           0.428334            -10.380646            5.960808            1             0.402573    [1[8[6]]]                                                   
  H          -1.213763            -10.079915            7.286941            1             0.031932    [1[6[8][1][1]]]                                             
  H          -1.977476            -8.807010             6.256494            1             0.031932    [1[6[8][1][1]]]                                             
  H          -2.043818            -10.402291            5.751193            1             0.031932    [1[6[8][1][1]]]                                             
