12

  C          -3.229925            -9.058745            -4.313825            0             0.099454    [6[8[1]][1][1][1]]                                          
  O          -4.099625            -8.482971            -5.210653            0            -0.597823    [8[6[1][1][1]][1]]                                          
  H          -4.230069            -7.588252            -4.890243            0             0.402573    [1[8[6]]]                                                   
  H          -2.302949            -8.511018            -4.397252            0             0.031932    [1[6[8][1][1]]]                                             
  H          -3.675922            -8.894935            -3.326234            0             0.031932    [1[6[8][1][1]]]                                             
  H          -3.092762            -10.182586           -4.421901            0             0.031932    [1[6[8][1][1]]]                                             
  C          -7.674338            -9.265332            -5.261994            1             0.099454    [6[8[1]][1][1][1]]                                          
  O          -6.791323            -10.063391           -4.441534            1            -0.597823    [8[6[1][1][1]][1]]                                          
  H          -5.956641            -9.609527            -4.561336            1             0.402573    [1[8[6]]]                                                   
  H          -7.423914            -8.157637            -5.056827            1             0.031932    [1[6[8][1][1]]]                                             
  H          -7.631717            -9.367338            -6.404304            1             0.031932    [1[6[8][1][1]]]                                             
  H          -8.673876            -9.444796            -4.879844            1             0.031932    [1[6[8][1][1]]]                                             
