12

  C           6.841558            -4.279358             3.593163            0             0.099454    [6[8[1]][1][1][1]]                                          
  O           6.967058            -5.324514             2.727259            0            -0.597823    [8[6[1][1][1]][1]]                                          
  H           6.968686            -6.154978             3.242085            0             0.402573    [1[8[6]]]                                                   
  H           6.939423            -3.275139             3.211090            0             0.031932    [1[6[8][1][1]]]                                             
  H           5.826904            -4.372985             4.033386            0             0.031932    [1[6[8][1][1]]]                                             
  H           7.520350            -4.294207             4.443900            0             0.031932    [1[6[8][1][1]]]                                             
  C           9.972915            -7.685073             0.459403            1             0.099454    [6[8[1]][1][1][1]]                                          
  O           9.593615            -6.860634             1.550641            1            -0.597823    [8[6[1][1][1]][1]]                                          
  H           8.854218            -7.338539             1.910346            1             0.402573    [1[8[6]]]                                                   
  H           10.720847           -8.414273             0.751041            1             0.031932    [1[6[8][1][1]]]                                             
  H           9.034047            -8.157437             0.053867            1             0.031932    [1[6[8][1][1]]]                                             
  H           10.279727           -7.073836            -0.428352            1             0.031932    [1[6[8][1][1]]]                                             
