12

  C          -3.318311            -0.619609            -4.975786            0             0.099454    [6[8[1]][1][1][1]]                                          
  O          -2.848868            -0.188945            -3.711665            0            -0.597823    [8[6[1][1][1]][1]]                                          
  H          -2.709265             0.711760            -3.772373            0             0.402573    [1[8[6]]]                                                   
  H          -2.662649            -0.195860            -5.703031            0             0.031932    [1[6[8][1][1]]]                                             
  H          -3.228268            -1.702189            -5.124246            0             0.031932    [1[6[8][1][1]]]                                             
  H          -4.392851            -0.308560            -5.145854            0             0.031932    [1[6[8][1][1]]]                                             
  C          -0.339149            -4.423199            -5.326055            1             0.099454    [6[8[1]][1][1][1]]                                          
  O          -0.038769            -3.807960            -6.553983            1            -0.597823    [8[6[1][1][1]][1]]                                          
  H           0.856931            -4.029601            -6.766577            1             0.402573    [1[8[6]]]                                                   
  H          -1.183695            -3.938080            -4.910688            1             0.031932    [1[6[8][1][1]]]                                             
  H          -0.641640            -5.450036            -5.588658            1             0.031932    [1[6[8][1][1]]]                                             
  H           0.493558            -4.491203            -4.588605            1             0.031932    [1[6[8][1][1]]]                                             
