12

  C           10.999349           -5.266649            -1.319768            0             0.099454    [6[8[1]][1][1][1]]                                          
  O           11.616505           -5.919857            -0.228641            0            -0.597823    [8[6[1][1][1]][1]]                                          
  H           10.790786           -6.069596             0.322672            0             0.402573    [1[8[6]]]                                                   
  H           11.675425           -4.939022            -2.153195            0             0.031932    [1[6[8][1][1]]]                                             
  H           10.217054           -5.852464            -1.723310            0             0.031932    [1[6[8][1][1]]]                                             
  H           10.436245           -4.378384            -0.978400            0             0.031932    [1[6[8][1][1]]]                                             
  C           9.490457            -4.875805             3.455950            1             0.099454    [6[8[1]][1][1][1]]                                          
  O           10.344244           -5.117745             2.427739            1            -0.597823    [8[6[1][1][1]][1]]                                          
  H           11.255796           -5.131421             2.828803            1             0.402573    [1[8[6]]]                                                   
  H           8.538186            -5.378607             3.341968            1             0.031932    [1[6[8][1][1]]]                                             
  H           9.866922            -5.323209             4.390639            1             0.031932    [1[6[8][1][1]]]                                             
  H           9.396912            -3.795127             3.671283            1             0.031932    [1[6[8][1][1]]]                                             
