12

  C          -4.858137             8.794378            -2.162719            0             0.099454    [6[8[1]][1][1][1]]                                          
  O          -5.057893             9.023676            -0.762485            0            -0.597823    [8[6[1][1][1]][1]]                                          
  H          -4.277961             8.800261            -0.211867            0             0.402573    [1[8[6]]]                                                   
  H          -5.459045             7.976104            -2.597022            0             0.031932    [1[6[8][1][1]]]                                             
  H          -5.076426             9.725379            -2.688449            0             0.031932    [1[6[8][1][1]]]                                             
  H          -3.806476             8.543483            -2.442663            0             0.031932    [1[6[8][1][1]]]                                             
  C           0.387438             7.211846            -3.550846            1             0.099454    [6[8[1]][1][1][1]]                                          
  O           1.792564             7.463747            -3.620765            1            -0.597823    [8[6[1][1][1]][1]]                                          
  H           2.049877             7.318178            -2.693924            1             0.402573    [1[8[6]]]                                                   
  H           0.212305             6.111345            -3.715045            1             0.031932    [1[6[8][1][1]]]                                             
  H          -0.024939             7.621403            -2.647262            1             0.031932    [1[6[8][1][1]]]                                             
  H          -0.201617             7.672835            -4.356984            1             0.031932    [1[6[8][1][1]]]                                             
