6
Coordinates from ORCA-job 6_geo_opt
  C   3.01138082633769     -1.18093301882655      0.59848840997445
  O   4.39465473275204     -1.12804375540843      0.87429496418066
  H   4.77213243910590     -0.37898063258003      0.41252734494634
  H   2.80639066470898     -1.31898674772865     -0.46930330817411
  H   2.61099311808454     -2.03971390002580      1.13633916327964
  H   2.48433321901084     -0.28499694543054      0.94622142579302
