6
Indices: 0 1 2 3 4 5
C             3.01130757653139    -1.18089714717292     0.59849180422696    [6[8[1]][1][1][1]]
O             4.39467289087282    -1.12805001480734     0.87430750766285    [8[6[1][1][1]][1]]
H             4.77219600193700    -0.37902187602868     0.41249310528385    [1[8[6]]]
H             2.80643427848131    -1.31896487338191    -0.46934966754310    [1[6[8][1][1]]]
H             2.61103655093185    -2.03969283073981     1.13636955753774    [1[6[8][1][1]]]
H             2.48423677904632    -0.28502824034117     0.94625514089297    [1[6[8][1][1]]]
