12

  C           1.789285             9.798423            -2.464702            0             0.099454    [6[8[1]][1][1][1]]                                          
  O           2.889570             10.586637           -2.007297            0            -0.597823    [8[6[1][1][1]][1]]                                          
  H           2.798921             10.643839           -1.020595            0             0.402573    [1[8[6]]]                                                   
  H           1.306149             10.392855           -3.281718            0             0.031932    [1[6[8][1][1]]]                                             
  H           2.071224             8.818361            -2.858965            0             0.031932    [1[6[8][1][1]]]                                             
  H           0.975558             9.695420            -1.724452            0             0.031932    [1[6[8][1][1]]]                                             
  C          -1.190909             10.327106            1.281165            1             0.099454    [6[8[1]][1][1][1]]                                          
  O          -2.215405             10.697744            0.441225            1            -0.597823    [8[6[1][1][1]][1]]                                          
  H          -2.278766             9.994102            -0.216100            1             0.402573    [1[8[6]]]                                                   
  H          -0.267089             10.114509            0.636570            1             0.031932    [1[6[8][1][1]]]                                             
  H          -1.034651             11.061205            2.086478            1             0.031932    [1[6[8][1][1]]]                                             
  H          -1.474296             9.360939             1.762400            1             0.031932    [1[6[8][1][1]]]                                             
