12

  C           0.660958             5.234501             6.568248            0             0.099454    [6[8[1]][1][1][1]]                                          
  O           1.793988             4.917370             7.403906            0            -0.597823    [8[6[1][1][1]][1]]                                          
  H           1.654328             3.934204             7.551554            0             0.402573    [1[8[6]]]                                                   
  H           0.805839             4.909714             5.553898            0             0.031932    [1[6[8][1][1]]]                                             
  H          -0.204570             4.628391             6.807331            0             0.031932    [1[6[8][1][1]]]                                             
  H           0.475641             6.293078             6.607980            0             0.031932    [1[6[8][1][1]]]                                             
  C           3.937609             6.089715             5.121929            1             0.099454    [6[8[1]][1][1][1]]                                          
  O           4.894966             6.938586             4.500561            1            -0.597823    [8[6[1][1][1]][1]]                                          
  H           5.624434             6.969971             5.126123            1             0.402573    [1[8[6]]]                                                   
  H           3.038266             5.905496             4.475867            1             0.031932    [1[6[8][1][1]]]                                             
  H           4.311928             5.107801             5.271609            1             0.031932    [1[6[8][1][1]]]                                             
  H           3.625862             6.468092             6.095905            1             0.031932    [1[6[8][1][1]]]                                             
