12

  C          -1.836438            -10.187012            8.477243            0             0.099454    [6[8[1]][1][1][1]]                                          
  O          -3.182947            -10.585800            8.737161            0            -0.597823    [8[6[1][1][1]][1]]                                          
  H          -3.371845            -11.517466            8.417675            0             0.402573    [1[8[6]]]                                                   
  H          -1.785848            -9.646708             7.498774            0             0.031932    [1[6[8][1][1]]]                                             
  H          -1.443843            -9.424437             9.185187            0             0.031932    [1[6[8][1][1]]]                                             
  H          -1.188261            -11.073030            8.387025            0             0.031932    [1[6[8][1][1]]]                                             
  C          -5.836670            -10.911321            4.427515            1             0.099454    [6[8[1]][1][1][1]]                                          
  O          -4.845837            -10.467782            5.361570            1            -0.597823    [8[6[1][1][1]][1]]                                          
  H          -4.775316            -11.214859            5.959386            1             0.402573    [1[8[6]]]                                                   
  H          -5.871586            -10.517069            3.399717            1             0.031932    [1[6[8][1][1]]]                                             
  H          -5.695896            -11.994299            4.186843            1             0.031932    [1[6[8][1][1]]]                                             
  H          -6.824144            -10.822181            4.900740            1             0.031932    [1[6[8][1][1]]]                                             
