12

  C           10.216525           -3.071881            -7.313007            0             0.099454    [6[8[1]][1][1][1]]                                          
  O           10.804575           -3.202330            -8.625591            0            -0.597823    [8[6[1][1][1]][1]]                                          
  H           10.303395           -2.704909            -9.239488            0             0.402573    [1[8[6]]]                                                   
  H           10.831015           -3.504311            -6.458640            0             0.031932    [1[6[8][1][1]]]                                             
  H           10.061956           -1.978435            -7.131601            0             0.031932    [1[6[8][1][1]]]                                             
  H           9.240508            -3.474083            -7.385796            0             0.031932    [1[6[8][1][1]]]                                             
  C           9.938267            -0.317956            -10.229287           1             0.099454    [6[8[1]][1][1][1]]                                          
  O           9.221586            -1.545715            -10.242403           1            -0.597823    [8[6[1][1][1]][1]]                                          
  H           8.688830            -1.607761            -11.049615           1             0.402573    [1[8[6]]]                                                   
  H           10.575842           -0.293563            -11.107402           1             0.031932    [1[6[8][1][1]]]                                             
  H           9.270930             0.566092            -10.208799           1             0.031932    [1[6[8][1][1]]]                                             
  H           10.522078           -0.307752            -9.261394            1             0.031932    [1[6[8][1][1]]]                                             
