12

  C           3.328778             5.216020            -0.430047            0             0.099454    [6[8[1]][1][1][1]]                                          
  O           4.347338             5.363856            -1.385771            0            -0.597823    [8[6[1][1][1]][1]]                                          
  H           4.637568             6.277139            -1.392109            0             0.402573    [1[8[6]]]                                                   
  H           2.449465             5.800747            -0.724251            0             0.031932    [1[6[8][1][1]]]                                             
  H           2.975368             4.180181            -0.373804            0             0.031932    [1[6[8][1][1]]]                                             
  H           3.548815             5.555895             0.596199            0             0.031932    [1[6[8][1][1]]]                                             
  C           5.054067             9.348535            -0.828592            1             0.099454    [6[8[1]][1][1][1]]                                          
  O           4.545536             8.325056            -1.653997            1            -0.597823    [8[6[1][1][1]][1]]                                          
  H           3.968894             8.749369            -2.261235            1             0.402573    [1[8[6]]]                                                   
  H           5.746335             10.032893           -1.249748            1             0.031932    [1[6[8][1][1]]]                                             
  H           4.274785             9.977519            -0.417629            1             0.031932    [1[6[8][1][1]]]                                             
  H           5.502303             8.937228             0.087783            1             0.031932    [1[6[8][1][1]]]                                             
