12

  C           3.721256             2.865454             0.278842            0             0.099454    [6[8[1]][1][1][1]]                                          
  O           3.810652             4.224513             0.718855            0            -0.597823    [8[6[1][1][1]][1]]                                          
  H           3.847158             4.251311             1.654711            0             0.402573    [1[8[6]]]                                                   
  H           4.630489             2.337793             0.330650            0             0.031932    [1[6[8][1][1]]]                                             
  H           3.118835             2.213713             0.975832            0             0.031932    [1[6[8][1][1]]]                                             
  H           3.309772             2.784025            -0.718189            0             0.031932    [1[6[8][1][1]]]                                             
  C           4.789831             4.842195             4.673636            1             0.099454    [6[8[1]][1][1][1]]                                          
  O           4.834256             4.522513             3.376665            1            -0.597823    [8[6[1][1][1]][1]]                                          
  H           5.779525             4.363818             3.227645            1             0.402573    [1[8[6]]]                                                   
  H           3.778847             5.077454             4.981349            1             0.031932    [1[6[8][1][1]]]                                             
  H           5.025754             4.006608             5.322962            1             0.031932    [1[6[8][1][1]]]                                             
  H           5.505143             5.687903             4.910589            1             0.031932    [1[6[8][1][1]]]                                             
