12

  C           10.523130           -2.639775             4.449714            0             0.099454    [6[8[1]][1][1][1]]                                          
  O           9.637086            -1.623541             4.944725            0            -0.597823    [8[6[1][1][1]][1]]                                          
  H           10.235835           -1.029594             5.432499            0             0.402573    [1[8[6]]]                                                   
  H           10.169014           -3.207924             3.581402            0             0.031932    [1[6[8][1][1]]]                                             
  H           11.577218           -2.300368             4.261550            0             0.031932    [1[6[8][1][1]]]                                             
  H           10.573071           -3.466301             5.153517            0             0.031932    [1[6[8][1][1]]]                                             
  C           9.804271             1.267072             1.363597            1             0.099454    [6[8[1]][1][1][1]]                                          
  O           10.138398            0.228172             0.457149            1            -0.597823    [8[6[1][1][1]][1]]                                          
  H           9.374575            -0.323396             0.348087            1             0.402573    [1[8[6]]]                                                   
  H           10.687809            1.548635             1.931044            1             0.031932    [1[6[8][1][1]]]                                             
  H           9.417866             2.141988             0.889620            1             0.031932    [1[6[8][1][1]]]                                             
  H           8.960742             1.047092             2.027602            1             0.031932    [1[6[8][1][1]]]                                             
