12

  C           9.332024            -7.825781            -3.804788            0             0.099454    [6[8[1]][1][1][1]]                                          
  O           8.953421            -7.722838            -5.139420            0            -0.597823    [8[6[1][1][1]][1]]                                          
  H           8.371526            -8.481379            -5.322820            0             0.402573    [1[8[6]]]                                                   
  H           10.157458           -8.605935            -3.657025            0             0.031932    [1[6[8][1][1]]]                                             
  H           9.700460            -6.873416            -3.434979            0             0.031932    [1[6[8][1][1]]]                                             
  H           8.503247            -8.036935            -3.181149            0             0.031932    [1[6[8][1][1]]]                                             
  C           9.837550            -10.704145           -7.969861            1             0.099454    [6[8[1]][1][1][1]]                                          
  O           10.751761           -9.734307            -7.416163            1            -0.597823    [8[6[1][1][1]][1]]                                          
  H           10.618350           -9.662489            -6.446149            1             0.402573    [1[8[6]]]                                                   
  H           10.084871           -11.706342           -7.694545            1             0.031932    [1[6[8][1][1]]]                                             
  H           8.787805            -10.439550           -7.704366            1             0.031932    [1[6[8][1][1]]]                                             
  H           10.088406           -10.633210           -9.079807            1             0.031932    [1[6[8][1][1]]]                                             
