12

  C          -8.291909            -9.824663            -9.417989            0             0.099454    [6[8[1]][1][1][1]]                                          
  O          -7.835395            -10.309451           -10.671300           0            -0.597823    [8[6[1][1][1]][1]]                                          
  H          -6.842935            -10.248512           -10.710201           0             0.402573    [1[8[6]]]                                                   
  H          -8.071282            -8.713678            -9.406191            0             0.031932    [1[6[8][1][1]]]                                             
  H          -9.310220            -9.973369            -9.239578            0             0.031932    [1[6[8][1][1]]]                                             
  H          -7.730536            -10.313792           -8.609002            0             0.031932    [1[6[8][1][1]]]                                             
  C          -8.445493            -8.970130            -4.854206            1             0.099454    [6[8[1]][1][1][1]]                                          
  O          -8.017802            -7.780102            -4.192858            1            -0.597823    [8[6[1][1][1]][1]]                                          
  H          -7.371794            -8.082310            -3.518202            1             0.402573    [1[8[6]]]                                                   
  H          -7.667037            -9.755791            -4.931403            1             0.031932    [1[6[8][1][1]]]                                             
  H          -9.267876            -9.327560            -4.164710            1             0.031932    [1[6[8][1][1]]]                                             
  H          -8.935685            -8.943218            -5.800736            1             0.031932    [1[6[8][1][1]]]                                             
