12

  C           6.473592             9.706864            -10.771290           0             0.099454    [6[8[1]][1][1][1]]                                          
  O           7.685691             9.380644            -11.309980           0            -0.597823    [8[6[1][1][1]][1]]                                          
  H           8.111181             8.755592            -10.815954           0             0.402573    [1[8[6]]]                                                   
  H           5.928419             10.423833           -11.402221           0             0.031932    [1[6[8][1][1]]]                                             
  H           5.814521             8.813682            -10.683049           0             0.031932    [1[6[8][1][1]]]                                             
  H           6.546990             10.228248           -9.831830            0             0.031932    [1[6[8][1][1]]]                                             
  C           9.145848             8.446016            -8.697096            1             0.099454    [6[8[1]][1][1][1]]                                          
  O           9.313922             7.626189            -9.795681            1            -0.597823    [8[6[1][1][1]][1]]                                          
  H           10.268414            7.654718            -9.918647            1             0.402573    [1[8[6]]]                                                   
  H           8.206314             8.395980            -8.233170            1             0.031932    [1[6[8][1][1]]]                                             
  H           9.898711             8.080547            -7.931521            1             0.031932    [1[6[8][1][1]]]                                             
  H           9.374946             9.509119            -8.878427            1             0.031932    [1[6[8][1][1]]]                                             
