12

  C           5.169243            -9.493771             5.503406            0             0.099454    [6[8[1]][1][1][1]]                                          
  O           3.942726            -9.233860             4.939729            0            -0.597823    [8[6[1][1][1]][1]]                                          
  H           3.428846            -8.678624             5.570812            0             0.402573    [1[8[6]]]                                                   
  H           5.209470            -9.584556             6.578923            0             0.031932    [1[6[8][1][1]]]                                             
  H           5.409796            -10.512706            5.172332            0             0.031932    [1[6[8][1][1]]]                                             
  H           5.951064            -8.839104             5.193346            0             0.031932    [1[6[8][1][1]]]                                             
  C           3.340212            -5.103759             4.722729            1             0.099454    [6[8[1]][1][1][1]]                                          
  O           4.198028            -6.160828             5.112848            1            -0.597823    [8[6[1][1][1]][1]]                                          
  H           3.740715            -6.406466             5.979021            1             0.402573    [1[8[6]]]                                                   
  H           3.726197            -4.540154             3.788894            1             0.031932    [1[6[8][1][1]]]                                             
  H           2.411893            -5.543951             4.462794            1             0.031932    [1[6[8][1][1]]]                                             
  H           3.177969            -4.407597             5.559392            1             0.031932    [1[6[8][1][1]]]                                             
