12

  C           0.107441             2.741054            -3.055841            0             0.099454    [6[8[1]][1][1][1]]                                          
  O           0.093632             2.479985            -1.676650            0            -0.597823    [8[6[1][1][1]][1]]                                          
  H          -0.116713             3.352322            -1.369150            0             0.402573    [1[8[6]]]                                                   
  H           0.781831             3.560905            -3.329535            0             0.031932    [1[6[8][1][1]]]                                             
  H           0.429337             1.873700            -3.602147            0             0.031932    [1[6[8][1][1]]]                                             
  H          -0.921354             2.900499            -3.482296            0             0.031932    [1[6[8][1][1]]]                                             
  C          -0.054853            -2.760449            -4.019701            1             0.099454    [6[8[1]][1][1][1]]                                          
  O           1.160841            -3.032682            -4.713743            1            -0.597823    [8[6[1][1][1]][1]]                                          
  H           1.662629            -2.238347            -4.884516            1             0.402573    [1[8[6]]]                                                   
  H           0.122158            -2.158063            -3.125153            1             0.031932    [1[6[8][1][1]]]                                             
  H          -0.722976            -2.123060            -4.581221            1             0.031932    [1[6[8][1][1]]]                                             
  H          -0.512045            -3.724581            -3.800778            1             0.031932    [1[6[8][1][1]]]                                             
