12

  C           8.949076            -5.978823             1.374421            0             0.099454    [6[8[1]][1][1][1]]                                          
  O           8.061541            -5.195316             2.119433            0            -0.597823    [8[6[1][1][1]][1]]                                          
  H           7.149420            -5.531842             2.087189            0             0.402573    [1[8[6]]]                                                   
  H           8.545516            -6.842409             0.887766            0             0.031932    [1[6[8][1][1]]]                                             
  H           9.373425            -5.345801             0.537664            0             0.031932    [1[6[8][1][1]]]                                             
  H           9.797121            -6.359743             1.900939            0             0.031932    [1[6[8][1][1]]]                                             
  C           10.075003           -5.369550            -1.701341            1             0.099454    [6[8[1]][1][1][1]]                                          
  O           10.966355           -5.894968            -0.762528            1            -0.597823    [8[6[1][1][1]][1]]                                          
  H           10.837473           -6.806595            -0.593211            1             0.402573    [1[8[6]]]                                                   
  H           8.989269            -5.571708            -1.521119            1             0.031932    [1[6[8][1][1]]]                                             
  H           10.054936           -4.273271            -1.759322            1             0.031932    [1[6[8][1][1]]]                                             
  H           10.144655           -5.691776            -2.762107            1             0.031932    [1[6[8][1][1]]]                                             
