12

  C          -5.423742            -0.385399            -2.568477            0             0.099454    [6[8[1]][1][1][1]]                                          
  O          -6.072185            -0.124848            -3.822119            0            -0.597823    [8[6[1][1][1]][1]]                                          
  H          -6.889635             0.328356            -3.630966            0             0.402573    [1[8[6]]]                                                   
  H          -5.797947            -1.302258            -2.110480            0             0.031932    [1[6[8][1][1]]]                                             
  H          -4.343157            -0.522965            -2.760718            0             0.031932    [1[6[8][1][1]]]                                             
  H          -5.495436             0.461736            -1.828739            0             0.031932    [1[6[8][1][1]]]                                             
  C          -9.138662            -0.854459            -2.718519            1             0.099454    [6[8[1]][1][1][1]]                                          
  O          -8.785156             0.313220            -3.419192            1            -0.597823    [8[6[1][1][1]][1]]                                          
  H          -9.518352             0.917862            -3.590544            1             0.402573    [1[8[6]]]                                                   
  H          -9.971583            -1.408177            -3.173794            1             0.031932    [1[6[8][1][1]]]                                             
  H          -8.266306            -1.577687            -2.643014            1             0.031932    [1[6[8][1][1]]]                                             
  H          -9.458797            -0.554735            -1.694439            1             0.031932    [1[6[8][1][1]]]                                             
