12

  C          -0.021919             8.009453             2.783988            0             0.099454    [6[8[1]][1][1][1]]                                          
  O          -0.528219             7.199774             3.833651            0            -0.597823    [8[6[1][1][1]][1]]                                          
  H           0.125578             6.504699             4.084652            0             0.402573    [1[8[6]]]                                                   
  H           0.915588             8.444604             3.152632            0             0.031932    [1[6[8][1][1]]]                                             
  H           0.145282             7.447361             1.830952            0             0.031932    [1[6[8][1][1]]]                                             
  H          -0.773289             8.872872             2.476492            0             0.031932    [1[6[8][1][1]]]                                             
  C           4.423346             9.794990             1.911556            1             0.099454    [6[8[1]][1][1][1]]                                          
  O           4.461821             9.759707             3.374623            1            -0.597823    [8[6[1][1][1]][1]]                                          
  H           4.307610             8.886481             3.683218            1             0.402573    [1[8[6]]]                                                   
  H           4.804517             10.728253            1.457962            1             0.031932    [1[6[8][1][1]]]                                             
  H           4.994910             8.932887             1.526791            1             0.031932    [1[6[8][1][1]]]                                             
  H           3.371029             9.677512             1.573245            1             0.031932    [1[6[8][1][1]]]                                             
