12

  C           9.891550             0.480431             3.243141            0             0.099454    [6[8[1]][1][1][1]]                                          
  O           8.944325             0.051359             2.272123            0            -0.597823    [8[6[1][1][1]][1]]                                          
  H           9.402910            -0.576865             1.694396            0             0.402573    [1[8[6]]]                                                   
  H           9.507481             1.242253             3.932442            0             0.031932    [1[6[8][1][1]]]                                             
  H           10.277829           -0.410366             3.756870            0             0.031932    [1[6[8][1][1]]]                                             
  H           10.825653            0.996837             2.785037            0             0.031932    [1[6[8][1][1]]]                                             
  C           6.434356            -0.699909             0.170540            1             0.099454    [6[8[1]][1][1][1]]                                          
  O           5.365112            -0.900718            -0.728874            1            -0.597823    [8[6[1][1][1]][1]]                                          
  H           5.747872            -1.539752            -1.360051            1             0.402573    [1[8[6]]]                                                   
  H           7.251423            -0.122090            -0.272129            1             0.031932    [1[6[8][1][1]]]                                             
  H           6.045687            -0.224587             1.058624            1             0.031932    [1[6[8][1][1]]]                                             
  H           6.784626            -1.682548             0.522621            1             0.031932    [1[6[8][1][1]]]                                             
