12

  C          -8.943252            -7.348248             2.064146            0             0.099454    [6[8[1]][1][1][1]]                                          
  O          -8.854877            -8.616783             1.511822            0            -0.597823    [8[6[1][1][1]][1]]                                          
  H          -9.785357            -8.938947             1.557192            0             0.402573    [1[8[6]]]                                                   
  H          -7.983475            -6.876313             1.956709            0             0.031932    [1[6[8][1][1]]]                                             
  H          -9.635888            -6.670991             1.500144            0             0.031932    [1[6[8][1][1]]]                                             
  H          -9.236388            -7.364689             3.074729            0             0.031932    [1[6[8][1][1]]]                                             
  C          -6.449756            -7.615354            -0.842301            1             0.099454    [6[8[1]][1][1][1]]                                          
  O          -6.509052            -8.805502            -1.705923            1            -0.597823    [8[6[1][1][1]][1]]                                          
  H          -6.635960            -9.581778            -1.119752            1             0.402573    [1[8[6]]]                                                   
  H          -5.448720            -7.302162            -0.761370            1             0.031932    [1[6[8][1][1]]]                                             
  H          -6.964512            -6.780777            -1.292883            1             0.031932    [1[6[8][1][1]]]                                             
  H          -6.923662            -7.772756             0.107971            1             0.031932    [1[6[8][1][1]]]                                             
