12

  C           1.095944             8.166273             0.776603            0             0.099454    [6[8[1]][1][1][1]]                                          
  O           0.517582             8.047650            -0.461068            0            -0.597823    [8[6[1][1][1]][1]]                                          
  H           0.706959             8.852177            -0.975110            0             0.402573    [1[8[6]]]                                                   
  H           0.550971             9.003790             1.328476            0             0.031932    [1[6[8][1][1]]]                                             
  H           1.245504             7.247085             1.380575            0             0.031932    [1[6[8][1][1]]]                                             
  H           2.087410             8.582038             0.714807            0             0.031932    [1[6[8][1][1]]]                                             
  C          -2.712632             10.168565            0.735947            1             0.099454    [6[8[1]][1][1][1]]                                          
  O          -1.306672             10.366043            0.611113            1            -0.597823    [8[6[1][1][1]][1]]                                          
  H          -1.090374             10.729616           -0.244116            1             0.402573    [1[8[6]]]                                                   
  H          -3.258851             11.101495            0.569971            1             0.031932    [1[6[8][1][1]]]                                             
  H          -3.092900             9.536533            -0.103540            1             0.031932    [1[6[8][1][1]]]                                             
  H          -2.984458             9.562569             1.653365            1             0.031932    [1[6[8][1][1]]]                                             
