12

  C          -10.437570           -7.691088             3.203041            0             0.099454    [6[8[1]][1][1][1]]                                          
  O          -9.351927            -7.248831             3.985945            0            -0.597823    [8[6[1][1][1]][1]]                                          
  H          -9.736368            -6.954246             4.808212            0             0.402573    [1[8[6]]]                                                   
  H          -10.397779           -7.595246             2.129901            0             0.031932    [1[6[8][1][1]]]                                             
  H          -10.486399           -8.739084             3.351331            0             0.031932    [1[6[8][1][1]]]                                             
  H          -11.322131           -7.209878             3.542003            0             0.031932    [1[6[8][1][1]]]                                             
  C          -9.562317            -5.281374             8.166314            1             0.099454    [6[8[1]][1][1][1]]                                          
  O          -10.127318           -6.133071             7.157659            1            -0.597823    [8[6[1][1][1]][1]]                                          
  H          -9.389755            -6.622976             6.760071            1             0.402573    [1[8[6]]]                                                   
  H          -8.786559            -5.869834             8.759080            1             0.031932    [1[6[8][1][1]]]                                             
  H          -8.888842            -4.470125             7.708908            1             0.031932    [1[6[8][1][1]]]                                             
  H          -10.226890           -4.897641             8.880417            1             0.031932    [1[6[8][1][1]]]                                             
