6
Indices: 0 1 2 3 4 5
C             3.01111541350272    -1.18057000640080     0.59861850184190    [6[8[1]][1][1][1]]
O             4.39448072784415    -1.12772287403522     0.87443420527779    [8[6[1][1][1]][1]]
H             4.77200383890833    -0.37869473525656     0.41261980289879    [1[8[6]]]
H             2.80624211545264    -1.31863773260979    -0.46922296992816    [1[6[8][1][1]]]
H             2.61143989397774    -2.03993783415568     1.13602506420096    [1[6[8][1][1]]]
H             2.48494935819973    -0.28481825445348     0.94553218616847    [1[6[8][1][1]]]
