12

  C           0.003535            -5.877715             10.140912           0             0.099454    [6[8[1]][1][1][1]]                                          
  O           0.318346            -4.605744             10.783172           0            -0.597823    [8[6[1][1][1]][1]]                                          
  H           1.007645            -4.757691             11.420423           0             0.402573    [1[8[6]]]                                                   
  H          -0.478516            -5.721957             9.157673            0             0.031932    [1[6[8][1][1]]]                                             
  H           0.881340            -6.498868             10.075310           0             0.031932    [1[6[8][1][1]]]                                             
  H          -0.767575            -6.350094             10.780891           0             0.031932    [1[6[8][1][1]]]                                             
  C          -0.290439            -5.175821             5.549866            1             0.099454    [6[8[1]][1][1][1]]                                          
  O           0.225482            -4.442483             4.481468            1            -0.597823    [8[6[1][1][1]][1]]                                          
  H           0.245512            -4.926578             3.653445            1             0.402573    [1[8[6]]]                                                   
  H           0.327945            -6.084188             5.706868            1             0.031932    [1[6[8][1][1]]]                                             
  H          -0.064656            -4.679792             6.488860            1             0.031932    [1[6[8][1][1]]]                                             
  H          -1.417944            -5.373007             5.521078            1             0.031932    [1[6[8][1][1]]]                                             
