12

  C           7.470692             6.028601             6.508345            0             0.099454    [6[8[1]][1][1][1]]                                          
  O           7.339370             6.917307             7.588808            0            -0.597823    [8[6[1][1][1]][1]]                                          
  H           7.231223             7.717244             7.138052            0             0.402573    [1[8[6]]]                                                   
  H           7.922001             5.088984             6.804653            0             0.031932    [1[6[8][1][1]]]                                             
  H           6.594084             5.881988             5.978503            0             0.031932    [1[6[8][1][1]]]                                             
  H           8.218591             6.480001             5.812974            0             0.031932    [1[6[8][1][1]]]                                             
  C           4.430335             5.512395             8.657637            1             0.099454    [6[8[1]][1][1][1]]                                          
  O           4.405367             6.904607             8.601094            1            -0.597823    [8[6[1][1][1]][1]]                                          
  H           5.340159             7.220050             8.776465            1             0.402573    [1[8[6]]]                                                   
  H           4.978902             5.137231             9.546736            1             0.031932    [1[6[8][1][1]]]                                             
  H           3.450667             5.052634             8.684871            1             0.031932    [1[6[8][1][1]]]                                             
  H           4.890700             5.123783             7.757097            1             0.031932    [1[6[8][1][1]]]                                             
