12

  C          -9.607152             5.117939             10.317156           0             0.099454    [6[8[1]][1][1][1]]                                          
  O          -9.368994             5.737735             9.035976            0            -0.597823    [8[6[1][1][1]][1]]                                          
  H          -8.398916             5.941708             9.107230            0             0.402573    [1[8[6]]]                                                   
  H          -9.158430             4.141483             10.316364           0             0.031932    [1[6[8][1][1]]]                                             
  H          -9.168728             5.705296             11.156317           0             0.031932    [1[6[8][1][1]]]                                             
  H          -10.756930            5.109507             10.406257           0             0.031932    [1[6[8][1][1]]]                                             
  C          -11.184906            0.971605             7.176687            1             0.099454    [6[8[1]][1][1][1]]                                          
  O          -10.422062            0.522204             8.299412            1            -0.597823    [8[6[1][1][1]][1]]                                          
  H          -9.721010            -0.066477             8.024004            1             0.402573    [1[8[6]]]                                                   
  H          -11.829100            1.843151             7.305083            1             0.031932    [1[6[8][1][1]]]                                             
  H          -10.623863            1.147876             6.273757            1             0.031932    [1[6[8][1][1]]]                                             
  H          -11.894665            0.179690             6.994460            1             0.031932    [1[6[8][1][1]]]                                             
