12

  C           6.607193            -4.525845             4.377470            0             0.099454    [6[8[1]][1][1][1]]                                          
  O           6.373419            -5.532670             3.540175            0            -0.597823    [8[6[1][1][1]][1]]                                          
  H           5.453092            -5.878373             3.648403            0             0.402573    [1[8[6]]]                                                   
  H           6.456532            -4.812050             5.465561            0             0.031932    [1[6[8][1][1]]]                                             
  H           7.700353            -4.239288             4.432152            0             0.031932    [1[6[8][1][1]]]                                             
  H           6.134564            -3.540531             4.143520            0             0.031932    [1[6[8][1][1]]]                                             
  C           4.453299            -7.891015             7.200770            1             0.099454    [6[8[1]][1][1][1]]                                          
  O           5.806999            -8.137532             7.399808            1            -0.597823    [8[6[1][1][1]][1]]                                          
  H           6.220994            -8.641215             6.728034            1             0.402573    [1[8[6]]]                                                   
  H           4.042633            -8.647299             6.533391            1             0.031932    [1[6[8][1][1]]]                                             
  H           3.871545            -7.952245             8.090356            1             0.031932    [1[6[8][1][1]]]                                             
  H           4.242423            -6.909423             6.841852            1             0.031932    [1[6[8][1][1]]]                                             
