12

  C          -3.366488             1.354718             8.299496            0             0.099454    [6[8[1]][1][1][1]]                                          
  O          -2.747762             2.580068             8.513952            0            -0.597823    [8[6[1][1][1]][1]]                                          
  H          -2.097212             2.607204             7.804503            0             0.402573    [1[8[6]]]                                                   
  H          -3.091532             0.606645             9.087924            0             0.031932    [1[6[8][1][1]]]                                             
  H          -4.464560             1.385830             8.357553            0             0.031932    [1[6[8][1][1]]]                                             
  H          -3.098089             0.935276             7.304372            0             0.031932    [1[6[8][1][1]]]                                             
  C          -0.190552            -1.346349             7.638156            1             0.099454    [6[8[1]][1][1][1]]                                          
  O          -0.224249            -1.612135             6.254584            1            -0.597823    [8[6[1][1][1]][1]]                                          
  H          -0.894124            -2.259526             6.100386            1             0.402573    [1[8[6]]]                                                   
  H          -0.148998            -2.211394             8.212019            1             0.031932    [1[6[8][1][1]]]                                             
  H           0.737630            -0.846319             7.968315            1             0.031932    [1[6[8][1][1]]]                                             
  H          -1.056056            -0.711829             7.991936            1             0.031932    [1[6[8][1][1]]]                                             
