12

  C           7.022081            -8.326697             9.853911            0             0.099454    [6[8[1]][1][1][1]]                                          
  O           7.322670            -8.141552             11.271273           0            -0.597823    [8[6[1][1][1]][1]]                                          
  H           6.715127            -8.811474             11.650271           0             0.402573    [1[8[6]]]                                                   
  H           7.204798            -7.429468             9.312744            0             0.031932    [1[6[8][1][1]]]                                             
  H           7.707695            -9.087207             9.380179            0             0.031932    [1[6[8][1][1]]]                                             
  H           5.996552            -8.662078             9.599881            0             0.031932    [1[6[8][1][1]]]                                             
  C           1.540545            -8.880353             11.045679           1             0.099454    [6[8[1]][1][1][1]]                                          
  O           2.725297            -9.416143             10.365769           1            -0.597823    [8[6[1][1][1]][1]]                                          
  H           2.519831            -10.339246            10.122382           1             0.402573    [1[8[6]]]                                                   
  H           0.725152            -8.670950             10.329314           1             0.031932    [1[6[8][1][1]]]                                             
  H           1.021613            -9.653652             11.738864           1             0.031932    [1[6[8][1][1]]]                                             
  H           1.725243            -7.968922             11.603275           1             0.031932    [1[6[8][1][1]]]                                             
