12

  C          -3.541612             8.218738            -6.097579            0             0.099454    [6[8[1]][1][1][1]]                                          
  O          -2.500026             7.841059            -5.165467            0            -0.597823    [8[6[1][1][1]][1]]                                          
  H          -2.808424             8.091062            -4.276652            0             0.402573    [1[8[6]]]                                                   
  H          -4.504519             8.175344            -5.636522            0             0.031932    [1[6[8][1][1]]]                                             
  H          -3.270904             9.255707            -6.480989            0             0.031932    [1[6[8][1][1]]]                                             
  H          -3.586497             7.616042            -6.948879            0             0.031932    [1[6[8][1][1]]]                                             
  C          -4.905139             5.262568            -10.301868           1             0.099454    [6[8[1]][1][1][1]]                                          
  O          -4.333922             5.021783            -9.019390            1            -0.597823    [8[6[1][1][1]][1]]                                          
  H          -4.942635             5.445550            -8.437080            1             0.402573    [1[8[6]]]                                                   
  H          -4.087589             5.285542            -11.069867           1             0.031932    [1[6[8][1][1]]]                                             
  H          -5.760049             4.649201            -10.628340           1             0.031932    [1[6[8][1][1]]]                                             
  H          -5.338715             6.228068            -10.267397           1             0.031932    [1[6[8][1][1]]]                                             
