12

  C          -2.327879            -1.689422            -8.778547            0             0.099454    [6[8[1]][1][1][1]]                                          
  O          -1.414397            -2.216028            -7.842568            0            -0.597823    [8[6[1][1][1]][1]]                                          
  H          -1.431879            -3.135477            -8.159358            0             0.402573    [1[8[6]]]                                                   
  H          -1.907718            -1.481460            -9.705796            0             0.031932    [1[6[8][1][1]]]                                             
  H          -3.138934            -2.311804            -8.966968            0             0.031932    [1[6[8][1][1]]]                                             
  H          -2.843604            -0.810400            -8.339234            0             0.031932    [1[6[8][1][1]]]                                             
  C          -0.745910            -4.978390            -10.184007           1             0.099454    [6[8[1]][1][1][1]]                                          
  O          -0.486956            -4.877424            -8.819097            1            -0.597823    [8[6[1][1][1]][1]]                                          
  H          -0.942398            -5.613371            -8.446573            1             0.402573    [1[8[6]]]                                                   
  H          -0.400305            -5.989052            -10.614495           1             0.031932    [1[6[8][1][1]]]                                             
  H          -1.838380            -4.986133            -10.404108           1             0.031932    [1[6[8][1][1]]]                                             
  H          -0.206231            -4.276731            -10.733806           1             0.031932    [1[6[8][1][1]]]                                             
