12

  C          -2.448626             5.690601             9.930628            0             0.099454    [6[8[1]][1][1][1]]                                          
  O          -2.384524             6.628050             8.851840            0            -0.597823    [8[6[1][1][1]][1]]                                          
  H          -1.761138             6.529912             8.172932            0             0.402573    [1[8[6]]]                                                   
  H          -1.634249             5.681301             10.645902           0             0.031932    [1[6[8][1][1]]]                                             
  H          -3.371178             5.764819             10.581678           0             0.031932    [1[6[8][1][1]]]                                             
  H          -2.443107             4.654184             9.502492            0             0.031932    [1[6[8][1][1]]]                                             
  C          -2.033540             9.238028             10.264947           1             0.099454    [6[8[1]][1][1][1]]                                          
  O          -3.166251             9.222319             9.440236            1            -0.597823    [8[6[1][1][1]][1]]                                          
  H          -3.146534             8.395485             8.933780            1             0.402573    [1[8[6]]]                                                   
  H          -1.063467             9.294717             9.660196            1             0.031932    [1[6[8][1][1]]]                                             
  H          -2.003530             10.114085            10.944249           1             0.031932    [1[6[8][1][1]]]                                             
  H          -1.842318             8.392955             10.908813           1             0.031932    [1[6[8][1][1]]]                                             
