12

  C          -4.842045             7.838323             1.272649            0             0.099454    [6[8[1]][1][1][1]]                                          
  O          -4.123788             7.309092             2.305676            0            -0.597823    [8[6[1][1][1]][1]]                                          
  H          -3.199384             7.520210             2.117756            0             0.402573    [1[8[6]]]                                                   
  H          -5.833426             7.371464             1.154109            0             0.031932    [1[6[8][1][1]]]                                             
  H          -4.977565             8.933817             1.339982            0             0.031932    [1[6[8][1][1]]]                                             
  H          -4.219223             7.709401             0.386398            0             0.031932    [1[6[8][1][1]]]                                             
  C          -0.676098             8.392767             1.470357            1             0.099454    [6[8[1]][1][1][1]]                                          
  O          -1.450425             7.890329             2.485881            1            -0.597823    [8[6[1][1][1]][1]]                                          
  H          -0.899939             7.273258             2.924053            1             0.402573    [1[8[6]]]                                                   
  H          -1.271635             8.689298             0.529120            1             0.031932    [1[6[8][1][1]]]                                             
  H          -0.158063             9.324743             1.715549            1             0.031932    [1[6[8][1][1]]]                                             
  H           0.009115             7.665358             1.069174            1             0.031932    [1[6[8][1][1]]]                                             
