12

  C          -5.919274            -3.266028            -9.765933            0             0.099454    [6[8[1]][1][1][1]]                                          
  O          -7.007712            -2.477800            -10.131426           0            -0.597823    [8[6[1][1][1]][1]]                                          
  H          -7.419284            -2.264709            -9.271346            0             0.402573    [1[8[6]]]                                                   
  H          -5.092639            -3.122663            -10.527099           0             0.031932    [1[6[8][1][1]]]                                             
  H          -5.501222            -2.933932            -8.783267            0             0.031932    [1[6[8][1][1]]]                                             
  H          -6.205399            -4.343898            -9.720369            0             0.031932    [1[6[8][1][1]]]                                             
  C          -3.389755            -0.935923            -6.500137            1             0.099454    [6[8[1]][1][1][1]]                                          
  O          -3.259672            -0.825678            -7.883029            1            -0.597823    [8[6[1][1][1]][1]]                                          
  H          -2.382912            -0.578327            -8.113036            1             0.402573    [1[8[6]]]                                                   
  H          -3.148542             0.079052            -5.986449            1             0.031932    [1[6[8][1][1]]]                                             
  H          -4.350042            -1.219182            -6.114905            1             0.031932    [1[6[8][1][1]]]                                             
  H          -2.645313            -1.593143            -6.048752            1             0.031932    [1[6[8][1][1]]]                                             
