12

  C          -3.318311            -0.619609            -4.975786            0             0.099454    [6[8[1]][1][1][1]]                                          
  O          -2.848868            -0.188945            -3.711665            0            -0.597823    [8[6[1][1][1]][1]]                                          
  H          -2.709265             0.711760            -3.772373            0             0.402573    [1[8[6]]]                                                   
  H          -2.662649            -0.195860            -5.703031            0             0.031932    [1[6[8][1][1]]]                                             
  H          -3.228268            -1.702189            -5.124246            0             0.031932    [1[6[8][1][1]]]                                             
  H          -4.392851            -0.308560            -5.145854            0             0.031932    [1[6[8][1][1]]]                                             
  C          -4.457753             0.302622            -8.468040            1             0.099454    [6[8[1]][1][1][1]]                                          
  O          -4.609920             1.414455            -7.704517            1            -0.597823    [8[6[1][1][1]][1]]                                          
  H          -3.849356             2.042617            -7.768961            1             0.402573    [1[8[6]]]                                                   
  H          -3.651086            -0.370586            -8.200092            1             0.031932    [1[6[8][1][1]]]                                             
  H          -5.302765            -0.325117            -8.665945            1             0.031932    [1[6[8][1][1]]]                                             
  H          -4.199064             0.684449            -9.470733            1             0.031932    [1[6[8][1][1]]]                                             
