6

  C           9.413836             8.100781             8.324935            0             0.089063    [6[8[1]][1][1][1]]                                          
  O           10.177641            9.186433             8.799578            0            -0.604789    [8[6[1][1][1]][1]]                                          
  H           10.466779            8.798903             9.636599            0             0.406250    [1[8[6]]]                                                   
  H           8.906484             7.716654             9.237874            0             0.036492    [1[6[8][1][1]]]                                             
  H           8.584639             8.337450             7.716500            0             0.036492    [1[6[8][1][1]]]                                             
  H           10.071720            7.308813             7.854180            0             0.036492    [1[6[8][1][1]]]                                             
