12

  C           4.599833             1.923888             6.602593            0             0.099454    [6[8[1]][1][1][1]]                                          
  O           3.786116             2.729609             7.484004            0            -0.597823    [8[6[1][1][1]][1]]                                          
  H           3.607876             3.440949             6.897519            0             0.402573    [1[8[6]]]                                                   
  H           5.455821             2.534420             6.223668            0             0.031932    [1[6[8][1][1]]]                                             
  H           5.103900             1.124986             7.097621            0             0.031932    [1[6[8][1][1]]]                                             
  H           4.070648             1.512387             5.743250            0             0.031932    [1[6[8][1][1]]]                                             
  C           8.138163             2.013779             8.440012            1             0.099454    [6[8[1]][1][1][1]]                                          
  O           8.449880             2.296050             7.073773            1            -0.597823    [8[6[1][1][1]][1]]                                          
  H           8.958610             1.573154             6.754095            1             0.402573    [1[8[6]]]                                                   
  H           7.680784             2.922407             8.860548            1             0.031932    [1[6[8][1][1]]]                                             
  H           7.458505             1.109173             8.484702            1             0.031932    [1[6[8][1][1]]]                                             
  H           9.035666             1.771950             8.988343            1             0.031932    [1[6[8][1][1]]]                                             
