12

  C          -0.791871             0.813297            -8.061991            0             0.099454    [6[8[1]][1][1][1]]                                          
  O           0.599258             1.023185            -8.096228            0            -0.597823    [8[6[1][1][1]][1]]                                          
  H           0.860506             1.887036            -7.719944            0             0.402573    [1[8[6]]]                                                   
  H          -1.410076             1.673867            -8.405220            0             0.031932    [1[6[8][1][1]]]                                             
  H          -1.066712            -0.003070            -8.757313            0             0.031932    [1[6[8][1][1]]]                                             
  H          -1.275459             0.581455            -7.114919            0             0.031932    [1[6[8][1][1]]]                                             
  C          -1.555646             5.231252            -6.405208            1             0.099454    [6[8[1]][1][1][1]]                                          
  O          -0.346762             4.541400            -6.399865            1            -0.597823    [8[6[1][1][1]][1]]                                          
  H           0.267018             4.970165            -5.812395            1             0.402573    [1[8[6]]]                                                   
  H          -1.461585             6.358154            -6.598062            1             0.031932    [1[6[8][1][1]]]                                             
  H          -2.193016             4.839029            -7.166690            1             0.031932    [1[6[8][1][1]]]                                             
  H          -2.062145             5.051455            -5.484070            1             0.031932    [1[6[8][1][1]]]                                             
