12

  C          -5.817098             5.117289             0.959725            0             0.099454    [6[8[1]][1][1][1]]                                          
  O          -5.056655             4.313537             0.051820            0            -0.597823    [8[6[1][1][1]][1]]                                          
  H          -5.327587             3.399154             0.011948            0             0.402573    [1[8[6]]]                                                   
  H          -5.612948             6.226188             0.834569            0             0.031932    [1[6[8][1][1]]]                                             
  H          -6.906491             4.974172             0.815594            0             0.031932    [1[6[8][1][1]]]                                             
  H          -5.504647             4.884335             1.969630            0             0.031932    [1[6[8][1][1]]]                                             
  C          -7.383524             3.060164            -0.078590            1             0.099454    [6[8[1]][1][1][1]]                                          
  O          -8.585551             2.833917             0.656873            1            -0.597823    [8[6[1][1][1]][1]]                                          
  H          -9.181825             3.527931             0.406084            1             0.402573    [1[8[6]]]                                                   
  H          -7.269240             2.349186            -0.874769            1             0.031932    [1[6[8][1][1]]]                                             
  H          -7.253227             4.048759            -0.503714            1             0.031932    [1[6[8][1][1]]]                                             
  H          -6.526529             2.898875             0.498537            1             0.031932    [1[6[8][1][1]]]                                             
