12

  C           6.774995            -8.324252            -6.953877            0             0.099454    [6[8[1]][1][1][1]]                                          
  O           7.881105            -8.521997            -6.079112            0            -0.597823    [8[6[1][1][1]][1]]                                          
  H           7.517149            -8.829247            -5.213137            0             0.402573    [1[8[6]]]                                                   
  H           6.347906            -9.271718            -7.258913            0             0.031932    [1[6[8][1][1]]]                                             
  H           6.000089            -7.780573            -6.407686            0             0.031932    [1[6[8][1][1]]]                                             
  H           7.153695            -7.866640            -7.863631            0             0.031932    [1[6[8][1][1]]]                                             
  C           4.883630            -10.437436           -9.321815            1             0.099454    [6[8[1]][1][1][1]]                                          
  O           5.023793            -9.844312            -10.564666           1            -0.597823    [8[6[1][1][1]][1]]                                          
  H           4.096121            -9.656463            -10.882841           1             0.402573    [1[8[6]]]                                                   
  H           4.162019            -9.781550            -8.683206            1             0.031932    [1[6[8][1][1]]]                                             
  H           4.288297            -11.358032           -9.378799            1             0.031932    [1[6[8][1][1]]]                                             
  H           5.756540            -10.701795           -8.747195            1             0.031932    [1[6[8][1][1]]]                                             
