12

  C          -6.423069             5.566092             9.013381            0             0.099454    [6[8[1]][1][1][1]]                                          
  O          -6.490406             6.939785             8.703720            0            -0.597823    [8[6[1][1][1]][1]]                                          
  H          -5.816488             7.100692             8.090013            0             0.402573    [1[8[6]]]                                                   
  H          -7.316964             5.205827             9.520099            0             0.031932    [1[6[8][1][1]]]                                             
  H          -6.371598             4.942767             8.107187            0             0.031932    [1[6[8][1][1]]]                                             
  H          -5.565183             5.306817             9.669080            0             0.031932    [1[6[8][1][1]]]                                             
  C          -9.184780             8.714281             7.040359            1             0.099454    [6[8[1]][1][1][1]]                                          
  O          -9.900336             9.841214             7.568429            1            -0.597823    [8[6[1][1][1]][1]]                                          
  H          -10.801421            9.817498             7.336472            1             0.402573    [1[8[6]]]                                                   
  H          -8.281255             9.030008             6.524249            1             0.031932    [1[6[8][1][1]]]                                             
  H          -8.829391             8.057116             7.855625            1             0.031932    [1[6[8][1][1]]]                                             
  H          -9.874790             8.127572             6.431518            1             0.031932    [1[6[8][1][1]]]                                             
