12

  C          -9.139240             8.319083             1.476346            0             0.099454    [6[8[1]][1][1][1]]                                          
  O          -8.010366             7.972983             0.697965            0            -0.597823    [8[6[1][1][1]][1]]                                          
  H          -7.540517             8.761070             0.432908            0             0.402573    [1[8[6]]]                                                   
  H          -9.768225             8.955373             0.903564            0             0.031932    [1[6[8][1][1]]]                                             
  H          -9.783392             7.442509             1.740151            0             0.031932    [1[6[8][1][1]]]                                             
  H          -8.859082             8.852121             2.322857            0             0.031932    [1[6[8][1][1]]]                                             
  C          -7.646360             9.044873            -2.935009            1             0.099454    [6[8[1]][1][1][1]]                                          
  O          -6.895352             7.881883            -2.856566            1            -0.597823    [8[6[1][1][1]][1]]                                          
  H          -6.917512             7.440230            -2.024012            1             0.402573    [1[8[6]]]                                                   
  H          -8.691625             8.860502            -2.725810            1             0.031932    [1[6[8][1][1]]]                                             
  H          -7.337985             9.821476            -2.248945            1             0.031932    [1[6[8][1][1]]]                                             
  H          -7.476254             9.658602            -3.836094            1             0.031932    [1[6[8][1][1]]]                                             
