12

  C           7.027536             3.700445             1.588677            0             0.099454    [6[8[1]][1][1][1]]                                          
  O           7.121738             4.093266             0.247516            0            -0.597823    [8[6[1][1][1]][1]]                                          
  H           7.366341             3.333908            -0.299382            0             0.402573    [1[8[6]]]                                                   
  H           8.023769             3.471064             2.076743            0             0.031932    [1[6[8][1][1]]]                                             
  H           6.544191             4.464693             2.197487            0             0.031932    [1[6[8][1][1]]]                                             
  H           6.420623             2.848499             1.708700            0             0.031932    [1[6[8][1][1]]]                                             
  C           3.467180             1.393242             0.592832            1             0.099454    [6[8[1]][1][1][1]]                                          
  O           3.199770             2.200727            -0.571443            1            -0.597823    [8[6[1][1][1]][1]]                                          
  H           2.595145             1.775491            -1.163679            1             0.402573    [1[8[6]]]                                                   
  H           3.979197             0.438904             0.292025            1             0.031932    [1[6[8][1][1]]]                                             
  H           4.181762             1.851568             1.262663            1             0.031932    [1[6[8][1][1]]]                                             
  H           2.615667             1.283709             1.299601            1             0.031932    [1[6[8][1][1]]]                                             
