12

  C          -10.729189            10.556752           -1.549944            0             0.099454    [6[8[1]][1][1][1]]                                          
  O          -9.844536             9.442152            -1.851716            0            -0.597823    [8[6[1][1][1]][1]]                                          
  H          -10.201714            8.818743            -2.561734            0             0.402573    [1[8[6]]]                                                   
  H          -10.139782            11.504818           -1.443811            0             0.031932    [1[6[8][1][1]]]                                             
  H          -11.550536            10.656616           -2.308718            0             0.031932    [1[6[8][1][1]]]                                             
  H          -11.116407            10.345038           -0.564643            0             0.031932    [1[6[8][1][1]]]                                             
  C          -6.738931             10.776547           -1.452221            1             0.099454    [6[8[1]][1][1][1]]                                          
  O          -7.666120             11.259897           -2.371506            1            -0.597823    [8[6[1][1][1]][1]]                                          
  H          -8.521363             10.777962           -2.377233            1             0.402573    [1[8[6]]]                                                   
  H          -6.801566             11.073614           -0.451381            1             0.031932    [1[6[8][1][1]]]                                             
  H          -6.735068             9.628642            -1.405417            1             0.031932    [1[6[8][1][1]]]                                             
  H          -5.692520             11.042973           -1.813621            1             0.031932    [1[6[8][1][1]]]                                             
