12

  C          -7.667179            -9.209066             3.339312            0             0.099454    [6[8[1]][1][1][1]]                                          
  O          -8.331323            -9.779651             4.428187            0            -0.597823    [8[6[1][1][1]][1]]                                          
  H          -8.630029            -10.674345            4.174091            0             0.402573    [1[8[6]]]                                                   
  H          -6.594837            -9.317972             3.473686            0             0.031932    [1[6[8][1][1]]]                                             
  H          -7.952272            -9.648018             2.417688            0             0.031932    [1[6[8][1][1]]]                                             
  H          -7.931544            -8.142269             3.023550            0             0.031932    [1[6[8][1][1]]]                                             
  C          -4.870710            -11.223837            1.960255            1             0.099454    [6[8[1]][1][1][1]]                                          
  O          -3.714352            -10.481646            1.690987            1            -0.597823    [8[6[1][1][1]][1]]                                          
  H          -3.151898            -10.923892            1.020329            1             0.402573    [1[8[6]]]                                                   
  H          -5.616214            -11.020734            1.134862            1             0.031932    [1[6[8][1][1]]]                                             
  H          -4.660132            -12.240792            1.941456            1             0.031932    [1[6[8][1][1]]]                                             
  H          -5.402218            -11.006514            2.911364            1             0.031932    [1[6[8][1][1]]]                                             
