13

C  3.43190000           1.91982000           0.27458000         
O  3.47604000           0.77512000          -0.54751000         
C  3.78600000          -0.35609000           0.23624000         
O  3.81913000          -1.48075000          -0.61464000         
C  4.12912000          -2.63189000           0.13828000         
H  3.18648000           2.79574000          -0.36035000         
H  4.42167000           2.12337000           0.74049000         
H  2.62880000           1.83880000           1.04048000         
H  2.99129000          -0.50019000           1.00788000         
H  4.79068000          -0.21694000           0.70423000         
H  4.15039000          -3.50256000          -0.54881000         
H  3.34730000          -2.83996000           0.90223000         
H  5.13960000          -2.55626000           0.59800000         
