12

  C          -8.175799             0.173329            -0.703508            0             0.099454    [6[8[1]][1][1][1]]                                          
  O          -7.712172             0.355606             0.610750            0            -0.597823    [8[6[1][1][1]][1]]                                          
  H          -8.296216            -0.066847             1.230191            0             0.402573    [1[8[6]]]                                                   
  H          -8.674358             1.059910            -1.034051            0             0.031932    [1[6[8][1][1]]]                                             
  H          -7.405601            -0.116866            -1.395031            0             0.031932    [1[6[8][1][1]]]                                             
  H          -8.910950            -0.641238            -0.730880            0             0.031932    [1[6[8][1][1]]]                                             
  C          -5.431064             3.410645            -1.481040            1             0.099454    [6[8[1]][1][1][1]]                                          
  O          -6.528782             2.810912            -0.803507            1            -0.597823    [8[6[1][1][1]][1]]                                          
  H          -6.199475             2.257877            -0.068820            1             0.402573    [1[8[6]]]                                                   
  H          -4.735965             3.634254            -0.724739            1             0.031932    [1[6[8][1][1]]]                                             
  H          -4.972894             2.724629            -2.260108            1             0.031932    [1[6[8][1][1]]]                                             
  H          -5.614087             4.338414            -1.991813            1             0.031932    [1[6[8][1][1]]]                                             
