12

  C           8.730308             3.899226             2.149717            0             0.099454    [6[8[1]][1][1][1]]                                          
  O           8.727510             4.515731             3.391171            0            -0.597823    [8[6[1][1][1]][1]]                                          
  H           8.971102             3.845364             4.096785            0             0.402573    [1[8[6]]]                                                   
  H           7.977863             3.093714             1.981061            0             0.031932    [1[6[8][1][1]]]                                             
  H           8.611493             4.563490             1.375801            0             0.031932    [1[6[8][1][1]]]                                             
  H           9.723099             3.443428             1.923112            0             0.031932    [1[6[8][1][1]]]                                             
  C           9.891550             0.480431             3.243141            1             0.099454    [6[8[1]][1][1][1]]                                          
  O           8.944325             0.051359             2.272123            1            -0.597823    [8[6[1][1][1]][1]]                                          
  H           9.402910            -0.576865             1.694396            1             0.402573    [1[8[6]]]                                                   
  H           9.507481             1.242253             3.932442            1             0.031932    [1[6[8][1][1]]]                                             
  H           10.277829           -0.410366             3.756870            1             0.031932    [1[6[8][1][1]]]                                             
  H           10.825653            0.996837             2.785037            1             0.031932    [1[6[8][1][1]]]                                             
