12

  C          -3.389755            -0.935923            -6.500137            0             0.099454    [6[8[1]][1][1][1]]                                          
  O          -3.259672            -0.825678            -7.883029            0            -0.597823    [8[6[1][1][1]][1]]                                          
  H          -2.382912            -0.578327            -8.113036            0             0.402573    [1[8[6]]]                                                   
  H          -3.148542             0.079052            -5.986449            0             0.031932    [1[6[8][1][1]]]                                             
  H          -4.350042            -1.219182            -6.114905            0             0.031932    [1[6[8][1][1]]]                                             
  H          -2.645313            -1.593143            -6.048752            0             0.031932    [1[6[8][1][1]]]                                             
  C          -0.351555             0.383032            -8.402694            1             0.099454    [6[8[1]][1][1][1]]                                          
  O          -0.314816            -0.859094            -7.686971            1            -0.597823    [8[6[1][1][1]][1]]                                          
  H          -0.003501            -0.643212            -6.725803            1             0.402573    [1[8[6]]]                                                   
  H          -0.755686             0.132344            -9.394718            1             0.031932    [1[6[8][1][1]]]                                             
  H          -0.953286             1.168169            -8.019851            1             0.031932    [1[6[8][1][1]]]                                             
  H           0.685888             0.764431            -8.560317            1             0.031932    [1[6[8][1][1]]]                                             
