12

  C          -7.981645             7.968449             2.554353            0             0.099454    [6[8[1]][1][1][1]]                                          
  O          -7.352871             7.303893             1.477125            0            -0.597823    [8[6[1][1][1]][1]]                                          
  H          -6.428532             7.589346             1.516940            0             0.402573    [1[8[6]]]                                                   
  H          -8.074758             9.059572             2.456553            0             0.031932    [1[6[8][1][1]]]                                             
  H          -8.998607             7.648953             2.752665            0             0.031932    [1[6[8][1][1]]]                                             
  H          -7.425151             7.825328             3.456174            0             0.031932    [1[6[8][1][1]]]                                             
  C          -3.343531             6.125688             0.309255            1             0.099454    [6[8[1]][1][1][1]]                                          
  O          -4.783303             6.347521             0.275186            1            -0.597823    [8[6[1][1][1]][1]]                                          
  H          -5.034317             7.018130            -0.422322            1             0.402573    [1[8[6]]]                                                   
  H          -2.895862             5.609519            -0.543921            1             0.031932    [1[6[8][1][1]]]                                             
  H          -2.784280             7.100064             0.629029            1             0.031932    [1[6[8][1][1]]]                                             
  H          -3.128050             5.492418             1.210818            1             0.031932    [1[6[8][1][1]]]                                             
