12

  C          -6.273322            -9.533329            -8.368384            0             0.099454    [6[8[1]][1][1][1]]                                          
  O          -7.523562            -10.051300           -8.014050            0            -0.597823    [8[6[1][1][1]][1]]                                          
  H          -8.078851            -9.952586            -8.778788            0             0.402573    [1[8[6]]]                                                   
  H          -5.871098            -8.781854            -7.648397            0             0.031932    [1[6[8][1][1]]]                                             
  H          -5.513111            -10.350072           -8.413968            0             0.031932    [1[6[8][1][1]]]                                             
  H          -6.238926            -9.095729            -9.396470            0             0.031932    [1[6[8][1][1]]]                                             
  C          -7.477111            -4.456450            -6.946488            1             0.099454    [6[8[1]][1][1][1]]                                          
  O          -7.988286            -4.822817            -5.665183            1            -0.597823    [8[6[1][1][1]][1]]                                          
  H          -7.892709            -4.108142            -5.012299            1             0.402573    [1[8[6]]]                                                   
  H          -6.388501            -4.259669            -7.003349            1             0.031932    [1[6[8][1][1]]]                                             
  H          -7.612256            -5.270702            -7.671501            1             0.031932    [1[6[8][1][1]]]                                             
  H          -7.996882            -3.590406            -7.298455            1             0.031932    [1[6[8][1][1]]]                                             
