12

  C           5.916145             7.599752            -3.115480            0             0.099454    [6[8[1]][1][1][1]]                                          
  O           6.303187             6.405109            -3.797141            0            -0.597823    [8[6[1][1][1]][1]]                                          
  H           6.313995             5.742929            -3.113214            0             0.402573    [1[8[6]]]                                                   
  H           6.562852             7.866482            -2.246742            0             0.031932    [1[6[8][1][1]]]                                             
  H           5.963492             8.428625            -3.817606            0             0.031932    [1[6[8][1][1]]]                                             
  H           4.933177             7.588969            -2.693862            0             0.031932    [1[6[8][1][1]]]                                             
  C           0.830158             6.375515            -3.351954            1             0.099454    [6[8[1]][1][1][1]]                                          
  O           0.940551             5.032398            -3.766488            1            -0.597823    [8[6[1][1][1]][1]]                                          
  H           0.052664             4.669566            -3.840227            1             0.402573    [1[8[6]]]                                                   
  H           1.780243             6.766716            -3.040105            1             0.031932    [1[6[8][1][1]]]                                             
  H           0.538714             6.865251            -4.300395            1             0.031932    [1[6[8][1][1]]]                                             
  H          -0.102038             6.622866            -2.764643            1             0.031932    [1[6[8][1][1]]]                                             
