12

  C          -5.975192            -6.182444            -5.476440            0             0.099454    [6[8[1]][1][1][1]]                                          
  O          -6.530866            -7.490303            -5.501899            0            -0.597823    [8[6[1][1][1]][1]]                                          
  H          -6.134978            -7.865174            -6.339371            0             0.402573    [1[8[6]]]                                                   
  H          -6.314522            -5.523298            -4.687969            0             0.031932    [1[6[8][1][1]]]                                             
  H          -4.854872            -6.273809            -5.430052            0             0.031932    [1[6[8][1][1]]]                                             
  H          -6.189006            -5.749936            -6.435882            0             0.031932    [1[6[8][1][1]]]                                             
  C          -6.077716            -9.421946            -2.967837            1             0.099454    [6[8[1]][1][1][1]]                                          
  O          -6.450177            -10.038575           -4.205301            1            -0.597823    [8[6[1][1][1]][1]]                                          
  H          -7.046259            -9.445821            -4.686895            1             0.402573    [1[8[6]]]                                                   
  H          -6.669234            -9.761680            -2.184673            1             0.031932    [1[6[8][1][1]]]                                             
  H          -5.055385            -9.563559            -2.656064            1             0.031932    [1[6[8][1][1]]]                                             
  H          -6.316235            -8.326180            -3.115929            1             0.031932    [1[6[8][1][1]]]                                             
