12

  C           10.151555            8.697992            -2.113844            0             0.099454    [6[8[1]][1][1][1]]                                          
  O           8.907114             8.041381            -1.854696            0            -0.597823    [8[6[1][1][1]][1]]                                          
  H           8.176294             8.540252            -2.215552            0             0.402573    [1[8[6]]]                                                   
  H           10.937525            7.939530            -1.949895            0             0.031932    [1[6[8][1][1]]]                                             
  H           10.135819            9.106653            -3.162596            0             0.031932    [1[6[8][1][1]]]                                             
  H           10.323929            9.538655            -1.477755            0             0.031932    [1[6[8][1][1]]]                                             
  C           9.208006             6.704164             1.585416            1             0.099454    [6[8[1]][1][1][1]]                                          
  O           10.551471            7.123146             1.486354            1            -0.597823    [8[6[1][1][1]][1]]                                          
  H           11.019895            6.273951             1.568083            1             0.402573    [1[8[6]]]                                                   
  H           8.903538             7.129145             2.464059            1             0.031932    [1[6[8][1][1]]]                                             
  H           8.576085             6.965224             0.737514            1             0.031932    [1[6[8][1][1]]]                                             
  H           9.120026             5.587219             1.723918            1             0.031932    [1[6[8][1][1]]]                                             
