6

  C          -8.529481             3.647370            -0.400500            0             0.089063    [6[8[1]][1][1][1]]                                          
  O          -8.312321             2.931254            -1.592540            0            -0.604789    [8[6[1][1][1]][1]]                                          
  H          -8.247862             2.035745            -1.330550            0             0.406250    [1[8[6]]]                                                   
  H          -9.565273             3.846659            -0.263133            0             0.036492    [1[6[8][1][1]]]                                             
  H          -8.190595             3.009083             0.366628            0             0.036492    [1[6[8][1][1]]]                                             
  H          -8.045980             4.647079            -0.430023            0             0.036492    [1[6[8][1][1]]]                                             
