12

  C           8.962663             8.231957             5.425827            0             0.099454    [6[8[1]][1][1][1]]                                          
  O           9.949730             9.224172             5.452284            0            -0.597823    [8[6[1][1][1]][1]]                                          
  H           10.724420            8.779643             5.024574            0             0.402573    [1[8[6]]]                                                   
  H           9.107767             7.617741             6.368248            0             0.031932    [1[6[8][1][1]]]                                             
  H           7.926964             8.624352             5.397204            0             0.031932    [1[6[8][1][1]]]                                             
  H           9.010763             7.567590             4.507931            0             0.031932    [1[6[8][1][1]]]                                             
  C           6.917700             10.839953            3.191765            1             0.099454    [6[8[1]][1][1][1]]                                          
  O           8.271262             10.653788            2.776351            1            -0.597823    [8[6[1][1][1]][1]]                                          
  H           8.399532             9.792571             2.456028            1             0.402573    [1[8[6]]]                                                   
  H           6.803520             11.005091            4.247233            1             0.031932    [1[6[8][1][1]]]                                             
  H           6.668160             11.836343            2.849223            1             0.031932    [1[6[8][1][1]]]                                             
  H           6.233742             10.158601            2.671462            1             0.031932    [1[6[8][1][1]]]                                             
