12

  C          -5.140939             2.584717            -8.729847            0             0.099454    [6[8[1]][1][1][1]]                                          
  O          -6.445005             2.920000            -8.282105            0            -0.597823    [8[6[1][1][1]][1]]                                          
  H          -6.808157             2.021269            -8.135481            0             0.402573    [1[8[6]]]                                                   
  H          -4.483177             3.504714            -8.792591            0             0.031932    [1[6[8][1][1]]]                                             
  H          -4.745012             1.765250            -8.084287            0             0.031932    [1[6[8][1][1]]]                                             
  H          -5.108222             2.105289            -9.689092            0             0.031932    [1[6[8][1][1]]]                                             
  C          -4.723180             2.478515            -4.752313            1             0.099454    [6[8[1]][1][1][1]]                                          
  O          -5.544233             3.373510            -5.366435            1            -0.597823    [8[6[1][1][1]][1]]                                          
  H          -5.971417             2.996121            -6.150473            1             0.402573    [1[8[6]]]                                                   
  H          -5.273834             1.547178            -4.698938            1             0.031932    [1[6[8][1][1]]]                                             
  H          -3.747039             2.419369            -5.248474            1             0.031932    [1[6[8][1][1]]]                                             
  H          -4.535337             2.705505            -3.659405            1             0.031932    [1[6[8][1][1]]]                                             
