12

  C          -5.192736            -2.225288             6.637700            0             0.099454    [6[8[1]][1][1][1]]                                          
  O          -5.408181            -1.507434             5.386835            0            -0.597823    [8[6[1][1][1]][1]]                                          
  H          -4.517370            -1.420161             5.041826            0             0.402573    [1[8[6]]]                                                   
  H          -4.838058            -1.544956             7.408872            0             0.031932    [1[6[8][1][1]]]                                             
  H          -6.004383            -2.688830             7.117625            0             0.031932    [1[6[8][1][1]]]                                             
  H          -4.338427            -2.918640             6.592779            0             0.031932    [1[6[8][1][1]]]                                             
  C          -1.810356             0.406828             3.525314            1             0.099454    [6[8[1]][1][1][1]]                                          
  O          -2.676276            -0.656911             3.167925            1            -0.597823    [8[6[1][1][1]][1]]                                          
  H          -3.289231            -0.286816             2.498564            1             0.402573    [1[8[6]]]                                                   
  H          -2.313226             1.180830             4.158564            1             0.031932    [1[6[8][1][1]]]                                             
  H          -1.006154            -0.012581             4.100338            1             0.031932    [1[6[8][1][1]]]                                             
  H          -1.447102             0.834586             2.550073            1             0.031932    [1[6[8][1][1]]]                                             
