12

  C          -6.809828            -7.466043             3.576054            0             0.099454    [6[8[1]][1][1][1]]                                          
  O          -7.899568            -7.122431             2.761647            0            -0.597823    [8[6[1][1][1]][1]]                                          
  H          -8.485116            -6.571884             3.300043            0             0.402573    [1[8[6]]]                                                   
  H          -6.140757            -8.235801             3.211368            0             0.031932    [1[6[8][1][1]]]                                             
  H          -6.195975            -6.624707             3.804071            0             0.031932    [1[6[8][1][1]]]                                             
  H          -7.153628            -7.872314             4.553636            0             0.031932    [1[6[8][1][1]]]                                             
  C          -8.009871            -4.711269            -2.147200            1             0.099454    [6[8[1]][1][1][1]]                                          
  O          -8.298918            -5.552520            -1.027599            1            -0.597823    [8[6[1][1][1]][1]]                                          
  H          -8.177552            -5.122342            -0.191332            1             0.402573    [1[8[6]]]                                                   
  H          -8.178726            -5.149591            -3.108748            1             0.031932    [1[6[8][1][1]]]                                             
  H          -8.576040            -3.788171            -2.055177            1             0.031932    [1[6[8][1][1]]]                                             
  H          -7.060665            -4.281000            -2.058181            1             0.031932    [1[6[8][1][1]]]                                             
