12

  C          -9.575196             3.290191            -11.082870           0             0.099454    [6[8[1]][1][1][1]]                                          
  O          -9.392839             4.161555            -9.997850            0            -0.597823    [8[6[1][1][1]][1]]                                          
  H          -8.632859             4.743500            -10.328710           0             0.402573    [1[8[6]]]                                                   
  H          -8.707762             2.622306            -11.315709           0             0.031932    [1[6[8][1][1]]]                                             
  H          -10.555590            2.763396            -10.983793           0             0.031932    [1[6[8][1][1]]]                                             
  H          -9.667619             3.920591            -12.010285           0             0.031932    [1[6[8][1][1]]]                                             
  C          -8.471510             6.676102            -8.548774            1             0.099454    [6[8[1]][1][1][1]]                                          
  O          -7.695524             6.375627            -9.654351            1            -0.597823    [8[6[1][1][1]][1]]                                          
  H          -8.332927             6.645817            -10.345592           1             0.402573    [1[8[6]]]                                                   
  H          -7.918044             7.033419            -7.642975            1             0.031932    [1[6[8][1][1]]]                                             
  H          -9.113098             7.540617            -8.649670            1             0.031932    [1[6[8][1][1]]]                                             
  H          -9.064198             5.845080            -8.224748            1             0.031932    [1[6[8][1][1]]]                                             
