12

  C          -5.235882             3.625782             3.629223            0             0.099454    [6[8[1]][1][1][1]]                                          
  O          -5.157352             3.575601             2.260142            0            -0.597823    [8[6[1][1][1]][1]]                                          
  H          -5.339816             4.474139             1.905838            0             0.402573    [1[8[6]]]                                                   
  H          -4.746919             2.763487             4.126884            0             0.031932    [1[6[8][1][1]]]                                             
  H          -4.722941             4.481456             4.022618            0             0.031932    [1[6[8][1][1]]]                                             
  H          -6.300535             3.639498             3.943306            0             0.031932    [1[6[8][1][1]]]                                             
  C          -7.362782             6.392833            -0.031246            1             0.099454    [6[8[1]][1][1][1]]                                          
  O          -6.746706             5.358698             0.595294            1            -0.597823    [8[6[1][1][1]][1]]                                          
  H          -7.008309             4.498787             0.148125            1             0.402573    [1[8[6]]]                                                   
  H          -7.361403             7.336571             0.467680            1             0.031932    [1[6[8][1][1]]]                                             
  H          -7.100800             6.503015            -1.023257            1             0.031932    [1[6[8][1][1]]]                                             
  H          -8.394243             6.060086            -0.106421            1             0.031932    [1[6[8][1][1]]]                                             
