12

  C          -3.085407             1.212228            -6.857028            0             0.099454    [6[8[1]][1][1][1]]                                          
  O          -4.014511             0.679533            -7.754818            0            -0.597823    [8[6[1][1][1]][1]]                                          
  H          -3.617017            -0.153410            -8.081807            0             0.402573    [1[8[6]]]                                                   
  H          -3.475457             2.195119            -6.416982            0             0.031932    [1[6[8][1][1]]]                                             
  H          -2.699295             0.539996            -6.108891            0             0.031932    [1[6[8][1][1]]]                                             
  H          -2.225274             1.472159            -7.430988            0             0.031932    [1[6[8][1][1]]]                                             
  C           0.454296             1.063015            -5.066884            1             0.099454    [6[8[1]][1][1][1]]                                          
  O           0.027373             1.018387            -6.371034            1            -0.597823    [8[6[1][1][1]][1]]                                          
  H          -0.179703             0.128811            -6.695658            1             0.402573    [1[8[6]]]                                                   
  H           1.451245             0.704450            -4.844679            1             0.031932    [1[6[8][1][1]]]                                             
  H           0.373348             2.132470            -4.849588            1             0.031932    [1[6[8][1][1]]]                                             
  H          -0.201784             0.501082            -4.370031            1             0.031932    [1[6[8][1][1]]]                                             
