12

  C          -5.817098             5.117289             0.959725            0             0.099454    [6[8[1]][1][1][1]]                                          
  O          -5.056655             4.313537             0.051820            0            -0.597823    [8[6[1][1][1]][1]]                                          
  H          -5.327587             3.399154             0.011948            0             0.402573    [1[8[6]]]                                                   
  H          -5.612948             6.226188             0.834569            0             0.031932    [1[6[8][1][1]]]                                             
  H          -6.906491             4.974172             0.815594            0             0.031932    [1[6[8][1][1]]]                                             
  H          -5.504647             4.884335             1.969630            0             0.031932    [1[6[8][1][1]]]                                             
  C          -6.296176             3.776495            -4.725563            1             0.099454    [6[8[1]][1][1][1]]                                          
  O          -5.685976             3.634716            -3.483569            1            -0.597823    [8[6[1][1][1]][1]]                                          
  H          -5.576019             4.521717            -3.251364            1             0.402573    [1[8[6]]]                                                   
  H          -5.678511             4.378508            -5.439903            1             0.031932    [1[6[8][1][1]]]                                             
  H          -6.424762             2.782603            -5.191134            1             0.031932    [1[6[8][1][1]]]                                             
  H          -7.243550             4.274723            -4.592986            1             0.031932    [1[6[8][1][1]]]                                             
