12

  C          -9.545944            -1.925808            -2.997380            0             0.099454    [6[8[1]][1][1][1]]                                          
  O          -9.264013            -3.170088            -3.475293            0            -0.597823    [8[6[1][1][1]][1]]                                          
  H          -8.769437            -3.667740            -2.835042            0             0.402573    [1[8[6]]]                                                   
  H          -8.792932            -1.236500            -3.249073            0             0.031932    [1[6[8][1][1]]]                                             
  H          -10.372462           -1.460632            -3.328128            0             0.031932    [1[6[8][1][1]]]                                             
  H          -9.761016            -1.989993            -1.908970            0             0.031932    [1[6[8][1][1]]]                                             
  C          -8.615972             1.750352            -0.385900            1             0.099454    [6[8[1]][1][1][1]]                                          
  O          -8.678538             0.556185            -1.232942            1            -0.597823    [8[6[1][1][1]][1]]                                          
  H          -8.926801             0.819722            -2.120699            1             0.402573    [1[8[6]]]                                                   
  H          -8.126132             2.672435            -0.806661            1             0.031932    [1[6[8][1][1]]]                                             
  H          -9.631979             2.129405            -0.183508            1             0.031932    [1[6[8][1][1]]]                                             
  H          -8.165052             1.481727             0.625091            1             0.031932    [1[6[8][1][1]]]                                             
