12

  C           7.094991            -5.874388             4.295036            0             0.099454    [6[8[1]][1][1][1]]                                          
  O           6.607568            -5.115187             5.413430            0            -0.597823    [8[6[1][1][1]][1]]                                          
  H           6.014298            -4.411971             5.145993            0             0.402573    [1[8[6]]]                                                   
  H           6.600203            -5.667700             3.315345            0             0.031932    [1[6[8][1][1]]]                                             
  H           8.165961            -5.827261             4.147364            0             0.031932    [1[6[8][1][1]]]                                             
  H           6.868536            -6.907309             4.499651            0             0.031932    [1[6[8][1][1]]]                                             
  C           4.063604            -4.164335             1.522662            1             0.099454    [6[8[1]][1][1][1]]                                          
  O           3.636612            -3.300503             0.440059            1            -0.597823    [8[6[1][1][1]][1]]                                          
  H           4.382438            -2.679649             0.364125            1             0.402573    [1[8[6]]]                                                   
  H           3.242593            -4.589483             2.142196            1             0.031932    [1[6[8][1][1]]]                                             
  H           4.763362            -5.016916             1.216015            1             0.031932    [1[6[8][1][1]]]                                             
  H           4.592937            -3.590968             2.334445            1             0.031932    [1[6[8][1][1]]]                                             
