6
Coordinates from ORCA-job 3_geo_opt
  C   3.01128303398299     -1.18108173254488      0.59861739346487
  O   4.39461937109484     -1.12819586253151      0.87438769177550
  H   4.77225036260091     -0.37882822081077      0.41238302010575
  H   2.80636603196313     -1.31912830403956     -0.46922274860673
  H   2.61145784956724     -2.04040848656080      1.13596961373819
  H   2.48470735079090     -0.28467239351248      0.94575102952242
