6
Indices: 0 1 2 3 4 5
C             3.01122872195444    -1.18105359930864     0.59858826502171    [6[8[1]][1][1][1]]
O             4.39459403629587    -1.12820646694306     0.87440396845760    [8[6[1][1][1]][1]]
H             4.77227485651395    -0.37886542389296     0.41239664448910    [1[8[6]]]
H             2.80635542390436    -1.31912132551763    -0.46925320674835    [1[6[8][1][1]]]
H             2.61155320242946    -2.04042142706352     1.13599482738077    [1[6[8][1][1]]]
H             2.48467834059411    -0.28464756581708     0.94575534457816    [1[6[8][1][1]]]
