12

  C          -6.289083             5.334921             7.284512            0             0.099454    [6[8[1]][1][1][1]]                                          
  O          -6.725180             4.905632             6.021596            0            -0.597823    [8[6[1][1][1]][1]]                                          
  H          -7.137238             5.626637             5.594528            0             0.402573    [1[8[6]]]                                                   
  H          -5.715605             4.491401             7.694702            0             0.031932    [1[6[8][1][1]]]                                             
  H          -5.550955             6.181531             7.229201            0             0.031932    [1[6[8][1][1]]]                                             
  H          -7.097747             5.597236             7.867000            0             0.031932    [1[6[8][1][1]]]                                             
  C          -7.636382             2.344616             4.192458            1             0.099454    [6[8[1]][1][1][1]]                                          
  O          -6.453534             2.105180             4.947122            1            -0.597823    [8[6[1][1][1]][1]]                                          
  H          -6.202331             2.949047             5.289194            1             0.402573    [1[8[6]]]                                                   
  H          -8.470495             2.421654             4.892306            1             0.031932    [1[6[8][1][1]]]                                             
  H          -7.650019             3.244742             3.613226            1             0.031932    [1[6[8][1][1]]]                                             
  H          -7.911625             1.543454             3.565426            1             0.031932    [1[6[8][1][1]]]                                             
