12

  C          -9.804069             7.900826             8.547474            0             0.099454    [6[8[1]][1][1][1]]                                          
  O          -9.071154             7.709983             9.761684            0            -0.597823    [8[6[1][1][1]][1]]                                          
  H          -8.392500             7.044270             9.630347            0             0.402573    [1[8[6]]]                                                   
  H          -10.682411            8.493206             8.766984            0             0.031932    [1[6[8][1][1]]]                                             
  H          -9.235418             8.590576             7.867122            0             0.031932    [1[6[8][1][1]]]                                             
  H          -10.142781            7.030390             7.977538            0             0.031932    [1[6[8][1][1]]]                                             
  C          -9.789984             3.397003             8.257598            1             0.099454    [6[8[1]][1][1][1]]                                          
  O          -8.878359             3.586016             7.223349            1            -0.597823    [8[6[1][1][1]][1]]                                          
  H          -8.985772             2.842737             6.568134            1             0.402573    [1[8[6]]]                                                   
  H          -9.967062             2.410120             8.591039            1             0.031932    [1[6[8][1][1]]]                                             
  H          -9.563147             4.052607             9.153509            1             0.031932    [1[6[8][1][1]]]                                             
  H          -10.742011            3.769991             7.910821            1             0.031932    [1[6[8][1][1]]]                                             
