12

  C          -6.296488             0.198913             2.792889            0             0.099454    [6[8[1]][1][1][1]]                                          
  O          -6.461516            -0.521665             1.555688            0            -0.597823    [8[6[1][1][1]][1]]                                          
  H          -5.961074            -1.353102             1.626890            0             0.402573    [1[8[6]]]                                                   
  H          -6.761771            -0.381322             3.663012            0             0.031932    [1[6[8][1][1]]]                                             
  H          -5.261582             0.262228             3.149411            0             0.031932    [1[6[8][1][1]]]                                             
  H          -6.779186             1.233509             2.736756            0             0.031932    [1[6[8][1][1]]]                                             
  C          -3.081965            -3.151013             1.544681            1             0.099454    [6[8[1]][1][1][1]]                                          
  O          -3.628681            -1.921584             2.059712            1            -0.597823    [8[6[1][1][1]][1]]                                          
  H          -2.926189            -1.395261             2.482765            1             0.402573    [1[8[6]]]                                                   
  H          -3.471048            -4.077369             1.944780            1             0.031932    [1[6[8][1][1]]]                                             
  H          -3.244484            -3.248277             0.437311            1             0.031932    [1[6[8][1][1]]]                                             
  H          -2.021864            -3.265605             1.820678            1             0.031932    [1[6[8][1][1]]]                                             
