12

  C          -0.754698            -4.429643             3.939378            0             0.099454    [6[8[1]][1][1][1]]                                          
  O          -1.196798            -4.428082             5.254249            0            -0.597823    [8[6[1][1][1]][1]]                                          
  H          -0.395699            -4.752719             5.779728            0             0.402573    [1[8[6]]]                                                   
  H          -0.383757            -5.340087             3.635676            0             0.031932    [1[6[8][1][1]]]                                             
  H          -1.507620            -4.118996             3.190048            0             0.031932    [1[6[8][1][1]]]                                             
  H           0.031200            -3.762485             3.769299            0             0.031932    [1[6[8][1][1]]]                                             
  C           2.297773            -6.764124             0.287503            1             0.099454    [6[8[1]][1][1][1]]                                          
  O           2.256616            -5.790287            -0.759902            1            -0.597823    [8[6[1][1][1]][1]]                                          
  H           2.855951            -5.067472            -0.529458            1             0.402573    [1[8[6]]]                                                   
  H           1.602706            -7.583123             0.132265            1             0.031932    [1[6[8][1][1]]]                                             
  H           3.277914            -7.233672             0.455721            1             0.031932    [1[6[8][1][1]]]                                             
  H           1.867347            -6.276976             1.178452            1             0.031932    [1[6[8][1][1]]]                                             
