12

  C          -9.460971            -5.850150            -9.983236            0             0.099454    [6[8[1]][1][1][1]]                                          
  O          -8.591912            -6.718918            -10.686473           0            -0.597823    [8[6[1][1][1]][1]]                                          
  H          -8.695396            -7.506844            -10.221084           0             0.402573    [1[8[6]]]                                                   
  H          -10.460182           -6.178799            -10.083656           0             0.031932    [1[6[8][1][1]]]                                             
  H          -9.193688            -5.917862            -8.911150            0             0.031932    [1[6[8][1][1]]]                                             
  H          -9.460853            -4.773154            -10.286841           0             0.031932    [1[6[8][1][1]]]                                             
  C          -5.590370            -7.869805            -9.159098            1             0.099454    [6[8[1]][1][1][1]]                                          
  O          -6.107930            -8.282535            -7.889996            1            -0.597823    [8[6[1][1][1]][1]]                                          
  H          -7.005371            -8.557653            -7.957416            1             0.402573    [1[8[6]]]                                                   
  H          -6.105004            -6.922504            -9.527348            1             0.031932    [1[6[8][1][1]]]                                             
  H          -4.508572            -7.705444            -9.112053            1             0.031932    [1[6[8][1][1]]]                                             
  H          -5.763735            -8.656621            -9.890694            1             0.031932    [1[6[8][1][1]]]                                             
