12

  C           5.879248             6.066946             0.264854            0             0.099454    [6[8[1]][1][1][1]]                                          
  O           4.644750             5.484827             0.033709            0            -0.597823    [8[6[1][1][1]][1]]                                          
  H           3.940731             6.087676             0.317555            0             0.402573    [1[8[6]]]                                                   
  H           5.948655             7.172369             0.120098            0             0.031932    [1[6[8][1][1]]]                                             
  H           6.144315             5.944105             1.290748            0             0.031932    [1[6[8][1][1]]]                                             
  H           6.708963             5.622361            -0.348714            0             0.031932    [1[6[8][1][1]]]                                             
  C           2.084568             8.517667            -0.584949            1             0.099454    [6[8[1]][1][1][1]]                                          
  O           2.198137             7.189808            -0.187101            1            -0.597823    [8[6[1][1][1]][1]]                                          
  H           1.521909             6.940569             0.429521            1             0.402573    [1[8[6]]]                                                   
  H           1.140881             8.865920            -0.125748            1             0.031932    [1[6[8][1][1]]]                                             
  H           2.908478             9.086071            -0.136464            1             0.031932    [1[6[8][1][1]]]                                             
  H           1.953745             8.564427            -1.639007            1             0.031932    [1[6[8][1][1]]]                                             
