12

  C          -1.523092            -3.085054            -4.626806            0             0.099454    [6[8[1]][1][1][1]]                                          
  O          -0.408437            -2.272487            -4.951602            0            -0.597823    [8[6[1][1][1]][1]]                                          
  H          -0.333065            -2.187968            -5.897498            0             0.402573    [1[8[6]]]                                                   
  H          -1.220030            -4.200989            -4.574410            0             0.031932    [1[6[8][1][1]]]                                             
  H          -1.929081            -2.720365            -3.656074            0             0.031932    [1[6[8][1][1]]]                                             
  H          -2.337389            -2.885458            -5.353517            0             0.031932    [1[6[8][1][1]]]                                             
  C          -0.151003            -2.035609            -8.821723            1             0.099454    [6[8[1]][1][1][1]]                                          
  O          -0.924824            -1.536299            -7.733373            1            -0.597823    [8[6[1][1][1]][1]]                                          
  H          -1.828442            -1.692329            -7.979716            1             0.402573    [1[8[6]]]                                                   
  H          -0.282953            -1.539425            -9.797442            1             0.031932    [1[6[8][1][1]]]                                             
  H           0.915134            -1.846635            -8.655497            1             0.031932    [1[6[8][1][1]]]                                             
  H          -0.344206            -3.076921            -8.978535            1             0.031932    [1[6[8][1][1]]]                                             
