12

  C           7.566947             5.501724            -7.688367            0             0.099454    [6[8[1]][1][1][1]]                                          
  O           8.871619             5.154170            -7.252014            0            -0.597823    [8[6[1][1][1]][1]]                                          
  H           9.390646             4.968212            -8.055029            0             0.402573    [1[8[6]]]                                                   
  H           7.136891             4.654805            -8.248062            0             0.031932    [1[6[8][1][1]]]                                             
  H           6.874358             5.827062            -6.924543            0             0.031932    [1[6[8][1][1]]]                                             
  H           7.614516             6.193306            -8.485146            0             0.031932    [1[6[8][1][1]]]                                             
  C           9.249348             3.887133            -10.934011           1             0.099454    [6[8[1]][1][1][1]]                                          
  O           9.697563             3.561478            -9.597869            1            -0.597823    [8[6[1][1][1]][1]]                                          
  H           10.339253            2.835095            -9.668018            1             0.402573    [1[8[6]]]                                                   
  H           8.978383             5.007794            -10.990049           1             0.031932    [1[6[8][1][1]]]                                             
  H           10.071252            3.732758            -11.620679           1             0.031932    [1[6[8][1][1]]]                                             
  H           8.289812             3.395133            -11.245010           1             0.031932    [1[6[8][1][1]]]                                             
