6

  C          -6.382713             0.616906             2.109065            0             0.089063    [6[8[1]][1][1][1]]                                          
  O          -6.063089            -0.623811             1.557926            0            -0.604789    [8[6[1][1][1]][1]]                                          
  H          -5.789878            -1.177674             2.303079            0             0.406250    [1[8[6]]]                                                   
  H          -7.235176             1.066133             1.618019            0             0.036492    [1[6[8][1][1]]]                                             
  H          -6.626538             0.560739             3.087833            0             0.036492    [1[6[8][1][1]]]                                             
  H          -5.597071             1.335384             2.021077            0             0.036492    [1[6[8][1][1]]]                                             
