12

  C           5.601645             2.865781            -2.937412            0             0.099454    [6[8[1]][1][1][1]]                                          
  O           6.469794             3.049377            -4.069682            0            -0.597823    [8[6[1][1][1]][1]]                                          
  H           7.333711             3.399525            -3.798781            0             0.402573    [1[8[6]]]                                                   
  H           5.628178             3.723211            -2.224318            0             0.031932    [1[6[8][1][1]]]                                             
  H           4.562722             2.880509            -3.237617            0             0.031932    [1[6[8][1][1]]]                                             
  H           5.848391             1.946578            -2.433106            0             0.031932    [1[6[8][1][1]]]                                             
  C           9.562394             5.317390            -3.527046            1             0.099454    [6[8[1]][1][1][1]]                                          
  O           8.176050             5.117132            -3.243014            1            -0.597823    [8[6[1][1][1]][1]]                                          
  H           7.870844             5.866545            -2.744694            1             0.402573    [1[8[6]]]                                                   
  H           9.716728             5.812961            -4.484793            1             0.031932    [1[6[8][1][1]]]                                             
  H           10.097111            5.912034            -2.712506            1             0.031932    [1[6[8][1][1]]]                                             
  H           10.143364            4.380377            -3.546100            1             0.031932    [1[6[8][1][1]]]                                             
