12

  C          -10.815946           -7.357765            -5.832672            0             0.099454    [6[8[1]][1][1][1]]                                          
  O          -9.807173            -7.012819            -6.767564            0            -0.597823    [8[6[1][1][1]][1]]                                          
  H          -9.051649            -7.493465            -6.453725            0             0.402573    [1[8[6]]]                                                   
  H          -10.896860           -6.794769            -4.900034            0             0.031932    [1[6[8][1][1]]]                                             
  H          -11.811929           -7.242348            -6.181496            0             0.031932    [1[6[8][1][1]]]                                             
  H          -10.662162           -8.393658            -5.525683            0             0.031932    [1[6[8][1][1]]]                                             
  C          -7.345479            -7.913174            -3.648446            1             0.099454    [6[8[1]][1][1][1]]                                          
  O          -7.537338            -7.522742            -4.989362            1            -0.597823    [8[6[1][1][1]][1]]                                          
  H          -6.741590            -7.192778            -5.369914            1             0.402573    [1[8[6]]]                                                   
  H          -6.759192            -8.841699            -3.530227            1             0.031932    [1[6[8][1][1]]]                                             
  H          -6.912197            -7.116349            -3.021945            1             0.031932    [1[6[8][1][1]]]                                             
  H          -8.278591            -8.214600            -3.203922            1             0.031932    [1[6[8][1][1]]]                                             
