6

  C          -6.680361            -8.236174             8.080573            0             0.089063    [6[8[1]][1][1][1]]                                          
  O          -7.468222            -7.086363             7.862022            0            -0.604789    [8[6[1][1][1]][1]]                                          
  H          -6.975564            -6.624363             7.188072            0             0.406250    [1[8[6]]]                                                   
  H          -5.677859            -7.950119             7.800691            0             0.036492    [1[6[8][1][1]]]                                             
  H          -6.661166            -8.598517             9.090119            0             0.036492    [1[6[8][1][1]]]                                             
  H          -7.053821            -9.051168             7.352118            0             0.036492    [1[6[8][1][1]]]                                             
