12

  C          -6.565968            -3.021015            -0.286961            0             0.099454    [6[8[1]][1][1][1]]                                          
  O          -7.870317            -2.524230            -0.457635            0            -0.597823    [8[6[1][1][1]][1]]                                          
  H          -8.464050            -3.263168            -0.428365            0             0.402573    [1[8[6]]]                                                   
  H          -6.375784            -3.424887             0.682798            0             0.031932    [1[6[8][1][1]]]                                             
  H          -6.358553            -3.812381            -1.019314            0             0.031932    [1[6[8][1][1]]]                                             
  H          -5.921900            -2.184792            -0.507281            0             0.031932    [1[6[8][1][1]]]                                             
  C          -7.895082            -0.450816            -3.438418            1             0.099454    [6[8[1]][1][1][1]]                                          
  O          -6.790914            -1.236352            -2.968042            1            -0.597823    [8[6[1][1][1]][1]]                                          
  H          -6.962837            -1.616194            -2.049960            1             0.402573    [1[8[6]]]                                                   
  H          -8.781143            -1.121909            -3.639668            1             0.031932    [1[6[8][1][1]]]                                             
  H          -8.113031             0.359831            -2.751344            1             0.031932    [1[6[8][1][1]]]                                             
  H          -7.681932            -0.008726            -4.411791            1             0.031932    [1[6[8][1][1]]]                                             
