12

  C           3.346385             5.166609            -0.324777            0             0.099454    [6[8[1]][1][1][1]]                                          
  O           4.605433             4.856927            -0.851271            0            -0.597823    [8[6[1][1][1]][1]]                                          
  H           4.735588             5.658297            -1.389277            0             0.402573    [1[8[6]]]                                                   
  H           2.939554             4.225934            -0.016089            0             0.031932    [1[6[8][1][1]]]                                             
  H           3.411675             5.727115             0.579502            0             0.031932    [1[6[8][1][1]]]                                             
  H           2.613158             5.716876            -1.000328            0             0.031932    [1[6[8][1][1]]]                                             
  C           2.918165             5.299627            -5.197540            1             0.099454    [6[8[1]][1][1][1]]                                          
  O           3.253149             4.996970            -6.525041            1            -0.597823    [8[6[1][1][1]][1]]                                          
  H           2.408468             4.743285            -6.901671            1             0.402573    [1[8[6]]]                                                   
  H           2.596880             6.344915            -4.937334            1             0.031932    [1[6[8][1][1]]]                                             
  H           2.037394             4.738800            -4.948837            1             0.031932    [1[6[8][1][1]]]                                             
  H           3.780129             5.006225            -4.529170            1             0.031932    [1[6[8][1][1]]]                                             
