12

  C          -8.336969            -4.600054             6.961619            0             0.099454    [6[8[1]][1][1][1]]                                          
  O          -7.406997            -4.718792             5.976221            0            -0.597823    [8[6[1][1][1]][1]]                                          
  H          -6.557219            -5.068828             6.345814            0             0.402573    [1[8[6]]]                                                   
  H          -9.026821            -3.757067             6.800029            0             0.031932    [1[6[8][1][1]]]                                             
  H          -9.068774            -5.485411             6.969378            0             0.031932    [1[6[8][1][1]]]                                             
  H          -7.848887            -4.496328             7.950912            0             0.031932    [1[6[8][1][1]]]                                             
  C          -5.166520            -2.157854             5.731922            1             0.099454    [6[8[1]][1][1][1]]                                          
  O          -4.352424            -2.878573             4.845293            1            -0.597823    [8[6[1][1][1]][1]]                                          
  H          -4.531012            -2.479481             4.001761            1             0.402573    [1[8[6]]]                                                   
  H          -6.255409            -2.274834             5.542018            1             0.031932    [1[6[8][1][1]]]                                             
  H          -4.978157            -2.425634             6.797351            1             0.031932    [1[6[8][1][1]]]                                             
  H          -5.056658            -1.138531             5.729317            1             0.031932    [1[6[8][1][1]]]                                             
