6

C  1.01345000          -0.07712000           0.05468000         
C  2.47662000          -0.07711000           0.05469000         
N  3.63382000          -0.07710000           0.05470000         
H  0.64339000           0.96848000           0.07989000         
H  0.64340000          -0.62176000           0.94758000         
H  0.64342000          -0.57809000          -0.86345000         
