12

  C          -2.543772             11.097149           -5.925851            0             0.099454    [6[8[1]][1][1][1]]                                          
  O          -3.388210             10.718351           -4.863969            0            -0.597823    [8[6[1][1][1]][1]]                                          
  H          -2.857181             10.590265           -4.086998            0             0.402573    [1[8[6]]]                                                   
  H          -3.183957             11.399977           -6.794502            0             0.031932    [1[6[8][1][1]]]                                             
  H          -2.030645             11.987127           -5.722639            0             0.031932    [1[6[8][1][1]]]                                             
  H          -1.844225             10.332951           -6.223363            0             0.031932    [1[6[8][1][1]]]                                             
  C          -4.577922             7.549913            -6.259814            1             0.099454    [6[8[1]][1][1][1]]                                          
  O          -5.822441             8.040496            -5.765704            1            -0.597823    [8[6[1][1][1]][1]]                                          
  H          -6.112907             8.734380            -6.371668            1             0.402573    [1[8[6]]]                                                   
  H          -3.982501             6.991980            -5.461943            1             0.031932    [1[6[8][1][1]]]                                             
  H          -4.767267             6.902026            -7.134338            1             0.031932    [1[6[8][1][1]]]                                             
  H          -3.949636             8.337608            -6.698863            1             0.031932    [1[6[8][1][1]]]                                             
