12

  C          -0.747754            -9.551591            -1.672735            0             0.099454    [6[8[1]][1][1][1]]                                          
  O          -1.408461            -8.257595            -1.573776            0            -0.597823    [8[6[1][1][1]][1]]                                          
  H          -1.827558            -8.258980            -0.729072            0             0.402573    [1[8[6]]]                                                   
  H          -1.143490            -10.237191           -0.882401            0             0.031932    [1[6[8][1][1]]]                                             
  H          -1.117367            -10.087011           -2.556173            0             0.031932    [1[6[8][1][1]]]                                             
  H           0.320744            -9.530704            -1.768838            0             0.031932    [1[6[8][1][1]]]                                             
  C          -3.331310            -6.055816            -3.086817            1             0.099454    [6[8[1]][1][1][1]]                                          
  O          -2.105490            -5.613339            -2.688533            1            -0.597823    [8[6[1][1][1]][1]]                                          
  H          -1.456967            -6.305582            -2.864196            1             0.402573    [1[8[6]]]                                                   
  H          -4.237121            -5.471085            -2.682077            1             0.031932    [1[6[8][1][1]]]                                             
  H          -3.476573            -6.009731            -4.181249            1             0.031932    [1[6[8][1][1]]]                                             
  H          -3.507395            -7.181582            -2.902595            1             0.031932    [1[6[8][1][1]]]                                             
