12

  C          -7.103731             6.653923            -1.669574            0             0.099454    [6[8[1]][1][1][1]]                                          
  O          -6.894566             5.210805            -1.789627            0            -0.597823    [8[6[1][1][1]][1]]                                          
  H          -7.334692             4.689197            -1.072243            0             0.402573    [1[8[6]]]                                                   
  H          -8.194465             6.918869            -1.815733            0             0.031932    [1[6[8][1][1]]]                                             
  H          -6.801057             7.072376            -0.661411            0             0.031932    [1[6[8][1][1]]]                                             
  H          -6.560077             7.160748            -2.438667            0             0.031932    [1[6[8][1][1]]]                                             
  C          -10.563604            5.681070            -3.447789            1             0.099454    [6[8[1]][1][1][1]]                                          
  O          -9.809328             6.199999            -4.474646            1            -0.597823    [8[6[1][1][1]][1]]                                          
  H          -9.208245             5.512544            -4.805590            1             0.402573    [1[8[6]]]                                                   
  H          -11.439028            6.363267            -3.300783            1             0.031932    [1[6[8][1][1]]]                                             
  H          -10.919224            4.688907            -3.654699            1             0.031932    [1[6[8][1][1]]]                                             
  H          -9.913095             5.656583            -2.566495            1             0.031932    [1[6[8][1][1]]]                                             
