12

  C           3.529877             9.232706            -3.207251            0             0.099454    [6[8[1]][1][1][1]]                                          
  O           4.863596             9.674193            -2.807178            0            -0.597823    [8[6[1][1][1]][1]]                                          
  H           5.455587             9.027773            -3.182617            0             0.402573    [1[8[6]]]                                                   
  H           3.334047             9.461608            -4.247411            0             0.031932    [1[6[8][1][1]]]                                             
  H           3.300273             8.202536            -2.897719            0             0.031932    [1[6[8][1][1]]]                                             
  H           2.726748             9.884370            -2.661681            0             0.031932    [1[6[8][1][1]]]                                             
  C           7.979355             10.539657           -1.674180            1             0.099454    [6[8[1]][1][1][1]]                                          
  O           7.395987             11.167816           -2.753438            1            -0.597823    [8[6[1][1][1]][1]]                                          
  H           6.620178             10.684902           -2.962992            1             0.402573    [1[8[6]]]                                                   
  H           7.322620             10.332398           -0.809915            1             0.031932    [1[6[8][1][1]]]                                             
  H           8.598384             9.662640            -1.905952            1             0.031932    [1[6[8][1][1]]]                                             
  H           8.736570             11.278372           -1.358240            1             0.031932    [1[6[8][1][1]]]                                             
