12

  C          -4.396208            -10.088231            7.968100            0             0.099454    [6[8[1]][1][1][1]]                                          
  O          -4.541358            -10.043016            9.397026            0            -0.597823    [8[6[1][1][1]][1]]                                          
  H          -5.374781            -10.508898            9.367996            0             0.402573    [1[8[6]]]                                                   
  H          -3.640328            -10.774000            7.645287            0             0.031932    [1[6[8][1][1]]]                                             
  H          -5.301122            -10.360672            7.370571            0             0.031932    [1[6[8][1][1]]]                                             
  H          -4.204147            -9.012225             7.653104            0             0.031932    [1[6[8][1][1]]]                                             
  C          -8.095396            -10.211659            8.317207            1             0.099454    [6[8[1]][1][1][1]]                                          
  O          -7.396752            -10.796283            9.429227            1            -0.597823    [8[6[1][1][1]][1]]                                          
  H          -7.653972            -11.701212            9.623084            1             0.402573    [1[8[6]]]                                                   
  H          -7.889877            -9.188066             8.110951            1             0.031932    [1[6[8][1][1]]]                                             
  H          -7.843025            -10.816453            7.392956            1             0.031932    [1[6[8][1][1]]]                                             
  H          -9.178970            -10.209825            8.421834            1             0.031932    [1[6[8][1][1]]]                                             
