12

  C          -9.588072            -1.444471             5.461368            0             0.099454    [6[8[1]][1][1][1]]                                          
  O          -10.403230           -2.633637             5.367968            0            -0.597823    [8[6[1][1][1]][1]]                                          
  H          -11.278415           -2.425012             5.028035            0             0.402573    [1[8[6]]]                                                   
  H          -9.139766            -1.218325             4.490122            0             0.031932    [1[6[8][1][1]]]                                             
  H          -10.162974           -0.559693             5.727943            0             0.031932    [1[6[8][1][1]]]                                             
  H          -8.740249            -1.545357             6.116138            0             0.031932    [1[6[8][1][1]]]                                             
  C          -6.242248            -0.142471             2.374967            1             0.099454    [6[8[1]][1][1][1]]                                          
  O          -6.795535             0.871142             1.528577            1            -0.597823    [8[6[1][1][1]][1]]                                          
  H          -6.086667             1.558375             1.634918            1             0.402573    [1[8[6]]]                                                   
  H          -7.005123            -0.500635             3.005440            1             0.031932    [1[6[8][1][1]]]                                             
  H          -5.854555            -0.967482             1.802231            1             0.031932    [1[6[8][1][1]]]                                             
  H          -5.386707             0.238985             2.896178            1             0.031932    [1[6[8][1][1]]]                                             
