12

  C          -1.657348            -2.605589             3.107495            0             0.099454    [6[8[1]][1][1][1]]                                          
  O          -1.433084            -3.963794             3.336402            0            -0.597823    [8[6[1][1][1]][1]]                                          
  H          -1.822367            -4.471035             2.634541            0             0.402573    [1[8[6]]]                                                   
  H          -1.025186            -1.978984             3.793105            0             0.031932    [1[6[8][1][1]]]                                             
  H          -1.370348            -2.277809             2.137469            0             0.031932    [1[6[8][1][1]]]                                             
  H          -2.655147            -2.318401             3.325334            0             0.031932    [1[6[8][1][1]]]                                             
  C          -1.907930            -3.589616             7.002095            1             0.099454    [6[8[1]][1][1][1]]                                          
  O          -2.154025            -4.559680             6.133148            1            -0.597823    [8[6[1][1][1]][1]]                                          
  H          -2.363920            -4.281243             5.232424            1             0.402573    [1[8[6]]]                                                   
  H          -1.061658            -2.953280             6.756528            1             0.031932    [1[6[8][1][1]]]                                             
  H          -2.723835            -2.808970             6.938761            1             0.031932    [1[6[8][1][1]]]                                             
  H          -1.777358            -3.891691             7.977162            1             0.031932    [1[6[8][1][1]]]                                             
