12

  C           8.152796             8.556054            -5.321419            0             0.099454    [6[8[1]][1][1][1]]                                          
  O           6.909219             9.044673            -4.812207            0            -0.597823    [8[6[1][1][1]][1]]                                          
  H           6.285718             8.702034            -5.470259            0             0.402573    [1[8[6]]]                                                   
  H           8.064256             8.349003            -6.365875            0             0.031932    [1[6[8][1][1]]]                                             
  H           9.010342             9.257000            -5.240811            0             0.031932    [1[6[8][1][1]]]                                             
  H           8.377186             7.606242            -4.788367            0             0.031932    [1[6[8][1][1]]]                                             
  C           5.865347             9.167918            -8.360008            1             0.099454    [6[8[1]][1][1][1]]                                          
  O           5.500343             8.493549            -7.201196            1            -0.597823    [8[6[1][1][1]][1]]                                          
  H           4.539778             8.361218            -7.270459            1             0.402573    [1[8[6]]]                                                   
  H           5.527229             10.237435           -8.308055            1             0.031932    [1[6[8][1][1]]]                                             
  H           6.944993             9.086587            -8.452698            1             0.031932    [1[6[8][1][1]]]                                             
  H           5.493211             8.733666            -9.272044            1             0.031932    [1[6[8][1][1]]]                                             
