27

C  5.29535000          -2.31297000          -4.99611000         
C  4.08405000          -1.46780000          -4.60168000         
C  3.45254000          -1.96115000          -3.29148000         
C  2.23803000          -1.10384000          -2.89280000         
C  1.61783000          -1.60123000          -1.57710000         
C  0.39313000          -0.76922000          -1.15838000         
C -0.20106000          -1.30478000           0.15447000         
C -1.42306000          -0.50372000           0.60957000         
O -1.90864000          -1.04791000           1.80477000         
H  5.72556000          -1.92794000          -5.94540000         
H  4.99966000          -3.37293000          -5.14820000         
H  6.07847000          -2.26259000          -4.20972000         
H  3.33357000          -1.51819000          -5.42026000         
H  4.41271000          -0.41258000          -4.48290000         
H  4.21414000          -1.91693000          -2.48196000         
H  3.12962000          -3.01824000          -3.41879000         
H  1.47521000          -1.15331000          -3.70070000         
H  2.55975000          -0.04627000          -2.76955000         
H  2.38411000          -1.54683000          -0.77252000         
H  1.30717000          -2.66167000          -1.70261000         
H -0.37891000          -0.81903000          -1.95783000         
H  0.69567000           0.29252000          -1.02095000         
H  0.57092000          -1.25861000           0.95382000         
H -0.50484000          -2.36558000           0.01405000         
H -2.21295000          -0.55913000          -0.17321000         
H -1.12689000           0.55669000           0.77570000         
H -2.69274000          -0.49730000           2.06507000         
