12

  C           3.842016             6.695679             2.250202            0             0.099454    [6[8[1]][1][1][1]]                                          
  O           2.873278             7.246164             1.343030            0            -0.597823    [8[6[1][1][1]][1]]                                          
  H           3.031708             6.919436             0.425400            0             0.402573    [1[8[6]]]                                                   
  H           3.817862             5.565453             2.173094            0             0.031932    [1[6[8][1][1]]]                                             
  H           4.822762             6.953849             1.878522            0             0.031932    [1[6[8][1][1]]]                                             
  H           3.663193             7.138407             3.241986            0             0.031932    [1[6[8][1][1]]]                                             
  C           3.235561             4.551749             5.934133            1             0.099454    [6[8[1]][1][1][1]]                                          
  O           2.594535             4.358241             7.218356            1            -0.597823    [8[6[1][1][1]][1]]                                          
  H           3.030707             4.934264             7.863506            1             0.402573    [1[8[6]]]                                                   
  H           4.267933             4.089265             5.970276            1             0.031932    [1[6[8][1][1]]]                                             
  H           2.610780             4.061850             5.130225            1             0.031932    [1[6[8][1][1]]]                                             
  H           3.285283             5.611217             5.737462            1             0.031932    [1[6[8][1][1]]]                                             
