12

  C          -4.521975            -6.233287             5.954755            0             0.099454    [6[8[1]][1][1][1]]                                          
  O          -4.879138            -6.814400             7.255290            0            -0.597823    [8[6[1][1][1]][1]]                                          
  H          -4.346958            -6.453633             7.886201            0             0.402573    [1[8[6]]]                                                   
  H          -3.499010            -6.592115             5.620698            0             0.031932    [1[6[8][1][1]]]                                             
  H          -5.202318            -6.713222             5.198677            0             0.031932    [1[6[8][1][1]]]                                             
  H          -4.591454            -5.146394             5.966266            0             0.031932    [1[6[8][1][1]]]                                             
  C          -5.704143            -4.582436             9.340201            1             0.099454    [6[8[1]][1][1][1]]                                          
  O          -6.258970            -4.143728             8.110816            1            -0.597823    [8[6[1][1][1]][1]]                                          
  H          -6.607318            -4.873166             7.598088            1             0.402573    [1[8[6]]]                                                   
  H          -5.487212            -3.772024             10.044190           1             0.031932    [1[6[8][1][1]]]                                             
  H          -6.435321            -5.206368             9.937870            1             0.031932    [1[6[8][1][1]]]                                             
  H          -4.824860            -5.154785             9.351215            1             0.031932    [1[6[8][1][1]]]                                             
