12

  C          -3.245610             4.766604             5.925738            0             0.099454    [6[8[1]][1][1][1]]                                          
  O          -2.105204             5.526825             5.753957            0            -0.597823    [8[6[1][1][1]][1]]                                          
  H          -2.061038             5.470847             4.812791            0             0.402573    [1[8[6]]]                                                   
  H          -3.398093             4.514218             6.964937            0             0.031932    [1[6[8][1][1]]]                                             
  H          -4.115643             5.335577             5.674308            0             0.031932    [1[6[8][1][1]]]                                             
  H          -3.145554             3.834048             5.296263            0             0.031932    [1[6[8][1][1]]]                                             
  C          -0.724076             2.085475             2.183284            1             0.099454    [6[8[1]][1][1][1]]                                          
  O          -1.374681             2.465893             3.392818            1            -0.597823    [8[6[1][1][1]][1]]                                          
  H          -1.953464             3.260510             3.216241            1             0.402573    [1[8[6]]]                                                   
  H           0.226551             1.538815             2.290839            1             0.031932    [1[6[8][1][1]]]                                             
  H          -1.235051             1.347565             1.552322            1             0.031932    [1[6[8][1][1]]]                                             
  H          -0.372481             2.892699             1.636223            1             0.031932    [1[6[8][1][1]]]                                             
