12

  C           0.074017             4.217301            -5.496732            0             0.099454    [6[8[1]][1][1][1]]                                          
  O           0.563221             5.487481            -5.740181            0            -0.597823    [8[6[1][1][1]][1]]                                          
  H          -0.073991             6.071840            -5.294138            0             0.402573    [1[8[6]]]                                                   
  H          -0.913316             4.025196            -5.905946            0             0.031932    [1[6[8][1][1]]]                                             
  H           0.774878             3.517048            -5.955846            0             0.031932    [1[6[8][1][1]]]                                             
  H          -0.044787             3.904843            -4.515804            0             0.031932    [1[6[8][1][1]]]                                             
  C          -1.613132             7.950779            -1.862534            1             0.099454    [6[8[1]][1][1][1]]                                          
  O          -2.005124             8.287322            -3.185681            1            -0.597823    [8[6[1][1][1]][1]]                                          
  H          -2.797053             7.751525            -3.445970            1             0.402573    [1[8[6]]]                                                   
  H          -1.196587             6.901148            -1.756135            1             0.031932    [1[6[8][1][1]]]                                             
  H          -0.742310             8.533457            -1.647358            1             0.031932    [1[6[8][1][1]]]                                             
  H          -2.418454             8.136153            -1.107895            1             0.031932    [1[6[8][1][1]]]                                             
