12

  C          -7.406490             5.114962             2.194658            0             0.099454    [6[8[1]][1][1][1]]                                          
  O          -8.127863             5.716703             3.172104            0            -0.597823    [8[6[1][1][1]][1]]                                          
  H          -8.698114             5.083331             3.538264            0             0.402573    [1[8[6]]]                                                   
  H          -7.612737             5.667259             1.305622            0             0.031932    [1[6[8][1][1]]]                                             
  H          -6.353386             5.182250             2.467790            0             0.031932    [1[6[8][1][1]]]                                             
  H          -7.619469             4.045659             1.948745            0             0.031932    [1[6[8][1][1]]]                                             
  C          -10.877618            3.785724             2.813707            1             0.099454    [6[8[1]][1][1][1]]                                          
  O          -9.835554             3.230264             3.560804            1            -0.597823    [8[6[1][1][1]][1]]                                          
  H          -10.201807            2.573905             4.177344            1             0.402573    [1[8[6]]]                                                   
  H          -10.561509            3.838784             1.746652            1             0.031932    [1[6[8][1][1]]]                                             
  H          -11.843129            3.206787             2.779399            1             0.031932    [1[6[8][1][1]]]                                             
  H          -11.174965            4.797430             3.146439            1             0.031932    [1[6[8][1][1]]]                                             
