12

  C           7.497052             2.270548            -2.229564            0             0.099454    [6[8[1]][1][1][1]]                                          
  O           7.274644             2.219434            -0.824995            0            -0.597823    [8[6[1][1][1]][1]]                                          
  H           7.353373             3.087960            -0.498924            0             0.402573    [1[8[6]]]                                                   
  H           6.908298             1.511459            -2.771878            0             0.031932    [1[6[8][1][1]]]                                             
  H           7.202090             3.245681            -2.504666            0             0.031932    [1[6[8][1][1]]]                                             
  H           8.554469             2.117082            -2.447961            0             0.031932    [1[6[8][1][1]]]                                             
  C           3.447843             2.517981            -1.564311            1             0.099454    [6[8[1]][1][1][1]]                                          
  O           3.630382             3.821687            -1.008966            1            -0.597823    [8[6[1][1][1]][1]]                                          
  H           4.407714             3.800133            -0.523055            1             0.402573    [1[8[6]]]                                                   
  H           4.241171             2.142604            -2.181179            1             0.031932    [1[6[8][1][1]]]                                             
  H           3.166179             1.787980            -0.901512            1             0.031932    [1[6[8][1][1]]]                                             
  H           2.565668             2.317214            -2.178707            1             0.031932    [1[6[8][1][1]]]                                             
