12

  C          -4.262804            -3.298811             4.931557            0             0.099454    [6[8[1]][1][1][1]]                                          
  O          -3.864564            -2.942529             6.210114            0            -0.597823    [8[6[1][1][1]][1]]                                          
  H          -2.899731            -2.834253             6.123950            0             0.402573    [1[8[6]]]                                                   
  H          -4.286093            -4.428996             4.908977            0             0.031932    [1[6[8][1][1]]]                                             
  H          -5.227939            -2.841040             4.620827            0             0.031932    [1[6[8][1][1]]]                                             
  H          -3.491225            -3.035285             4.130311            0             0.031932    [1[6[8][1][1]]]                                             
  C          -6.377136            -5.409427             9.602485            1             0.099454    [6[8[1]][1][1][1]]                                          
  O          -6.942819            -6.244277             8.593473            1            -0.597823    [8[6[1][1][1]][1]]                                          
  H          -6.239528            -6.315074             7.921902            1             0.402573    [1[8[6]]]                                                   
  H          -7.112668            -5.220025             10.409225           1             0.031932    [1[6[8][1][1]]]                                             
  H          -5.434968            -5.762906             10.066727           1             0.031932    [1[6[8][1][1]]]                                             
  H          -6.091281            -4.484647             9.137633            1             0.031932    [1[6[8][1][1]]]                                             
