12

  C          -8.330021            -3.936850             9.780098            0             0.099454    [6[8[1]][1][1][1]]                                          
  O          -7.082873            -4.366825             9.301597            0            -0.597823    [8[6[1][1][1]][1]]                                          
  H          -6.330123            -4.091510             9.880843            0             0.402573    [1[8[6]]]                                                   
  H          -9.113728            -4.603709             9.450616            0             0.031932    [1[6[8][1][1]]]                                             
  H          -8.289771            -4.009567             10.862791           0             0.031932    [1[6[8][1][1]]]                                             
  H          -8.578552            -2.883557             9.468591            0             0.031932    [1[6[8][1][1]]]                                             
  C          -8.782069            -0.807775             7.570743            1             0.099454    [6[8[1]][1][1][1]]                                          
  O          -8.483144            -2.095420             6.950535            1            -0.597823    [8[6[1][1][1]][1]]                                          
  H          -9.023656            -2.821554             7.231701            1             0.402573    [1[8[6]]]                                                   
  H          -8.608050            -0.917514             8.626769            1             0.031932    [1[6[8][1][1]]]                                             
  H          -8.249451             0.079255             7.182491            1             0.031932    [1[6[8][1][1]]]                                             
  H          -9.872292            -0.605238             7.324622            1             0.031932    [1[6[8][1][1]]]                                             
