12

  C           4.024355            -6.801977            -8.916837            0             0.099454    [6[8[1]][1][1][1]]                                          
  O           2.663368            -6.801153            -9.057764            0            -0.597823    [8[6[1][1][1]][1]]                                          
  H           2.302271            -5.971964            -8.723730            0             0.402573    [1[8[6]]]                                                   
  H           4.469199            -5.890253            -9.387422            0             0.031932    [1[6[8][1][1]]]                                             
  H           4.195968            -6.701892            -7.838637            0             0.031932    [1[6[8][1][1]]]                                             
  H           4.536072            -7.759296            -9.102608            0             0.031932    [1[6[8][1][1]]]                                             
  C           7.245544            -7.014350            -7.387267            1             0.099454    [6[8[1]][1][1][1]]                                          
  O           7.969741            -6.662805            -8.568939            1            -0.597823    [8[6[1][1][1]][1]]                                          
  H           8.515707            -5.864609            -8.469359            1             0.402573    [1[8[6]]]                                                   
  H           7.846462            -6.996320            -6.483732            1             0.031932    [1[6[8][1][1]]]                                             
  H           6.373822            -6.319145            -7.313843            1             0.031932    [1[6[8][1][1]]]                                             
  H           6.858383            -8.035789            -7.470372            1             0.031932    [1[6[8][1][1]]]                                             
