12

  C           1.278964            -10.654822            2.337766            0             0.099454    [6[8[1]][1][1][1]]                                          
  O           1.975469            -10.763566            3.561013            0            -0.597823    [8[6[1][1][1]][1]]                                          
  H           2.763265            -11.256909            3.348373            0             0.402573    [1[8[6]]]                                                   
  H           0.900062            -11.560758            2.008515            0             0.031932    [1[6[8][1][1]]]                                             
  H           0.551293            -9.905268             2.334664            0             0.031932    [1[6[8][1][1]]]                                             
  H           2.032881            -10.389157            1.510708            0             0.031932    [1[6[8][1][1]]]                                             
  C           0.326346            -7.849366             4.907157            1             0.099454    [6[8[1]][1][1][1]]                                          
  O           0.905791            -6.751774             4.223884            1            -0.597823    [8[6[1][1][1]][1]]                                          
  H           1.663626            -6.322167             4.710736            1             0.402573    [1[8[6]]]                                                   
  H           0.423714            -8.748136             4.252815            1             0.031932    [1[6[8][1][1]]]                                             
  H           0.760862            -7.984091             5.887132            1             0.031932    [1[6[8][1][1]]]                                             
  H          -0.774862            -7.694248             4.986652            1             0.031932    [1[6[8][1][1]]]                                             
