12

  C           8.306979            -1.199292            -5.182348            0             0.099454    [6[8[1]][1][1][1]]                                          
  O           7.537905            -1.703815            -6.246899            0            -0.597823    [8[6[1][1][1]][1]]                                          
  H           7.832907            -1.390369            -7.097220            0             0.402573    [1[8[6]]]                                                   
  H           8.184739            -0.143854            -5.200148            0             0.031932    [1[6[8][1][1]]]                                             
  H           8.096430            -1.585496            -4.205000            0             0.031932    [1[6[8][1][1]]]                                             
  H           9.355720            -1.370345            -5.333518            0             0.031932    [1[6[8][1][1]]]                                             
  C           10.237845           -3.068959            -3.308223            1             0.099454    [6[8[1]][1][1][1]]                                          
  O           9.737158            -3.674142            -4.465276            1            -0.597823    [8[6[1][1][1]][1]]                                          
  H           9.453177            -4.568584            -4.169225            1             0.402573    [1[8[6]]]                                                   
  H           10.407160           -2.007675            -3.539728            1             0.031932    [1[6[8][1][1]]]                                             
  H           9.488849            -3.072322            -2.575428            1             0.031932    [1[6[8][1][1]]]                                             
  H           11.112346           -3.636049            -2.896684            1             0.031932    [1[6[8][1][1]]]                                             
