12

  C          -5.817098             5.117289             0.959725            0             0.099454    [6[8[1]][1][1][1]]                                          
  O          -5.056655             4.313537             0.051820            0            -0.597823    [8[6[1][1][1]][1]]                                          
  H          -5.327587             3.399154             0.011948            0             0.402573    [1[8[6]]]                                                   
  H          -5.612948             6.226188             0.834569            0             0.031932    [1[6[8][1][1]]]                                             
  H          -6.906491             4.974172             0.815594            0             0.031932    [1[6[8][1][1]]]                                             
  H          -5.504647             4.884335             1.969630            0             0.031932    [1[6[8][1][1]]]                                             
  C          -4.456996             0.447814             1.796925            1             0.099454    [6[8[1]][1][1][1]]                                          
  O          -5.569938            -0.318385             1.474427            1            -0.597823    [8[6[1][1][1]][1]]                                          
  H          -6.363090             0.011979             1.965334            1             0.402573    [1[8[6]]]                                                   
  H          -3.835423            -0.019642             2.556356            1             0.031932    [1[6[8][1][1]]]                                             
  H          -3.690699             0.690469             1.045345            1             0.031932    [1[6[8][1][1]]]                                             
  H          -4.801970             1.393680             2.209254            1             0.031932    [1[6[8][1][1]]]                                             
