12

  C          -6.192142             3.316149            -6.809267            0             0.099454    [6[8[1]][1][1][1]]                                          
  O          -7.336972             3.537002            -7.548146            0            -0.597823    [8[6[1][1][1]][1]]                                          
  H          -7.789556             2.702504            -7.730848            0             0.402573    [1[8[6]]]                                                   
  H          -5.550803             2.508840            -7.203394            0             0.031932    [1[6[8][1][1]]]                                             
  H          -5.617500             4.249866            -6.681300            0             0.031932    [1[6[8][1][1]]]                                             
  H          -6.487296             3.059654            -5.826811            0             0.031932    [1[6[8][1][1]]]                                             
  C          -4.787999             2.505562            -9.731737            1             0.099454    [6[8[1]][1][1][1]]                                          
  O          -5.439751             3.601758            -10.315847           1            -0.597823    [8[6[1][1][1]][1]]                                          
  H          -6.206693             3.674236            -9.702092            1             0.402573    [1[8[6]]]                                                   
  H          -4.031052             2.001880            -10.360930           1             0.031932    [1[6[8][1][1]]]                                             
  H          -4.220860             2.880834            -8.900674            1             0.031932    [1[6[8][1][1]]]                                             
  H          -5.459779             1.754007            -9.317213            1             0.031932    [1[6[8][1][1]]]                                             
