12

  C          -8.020745            -3.527914            -10.654631           0             0.099454    [6[8[1]][1][1][1]]                                          
  O          -8.474491            -2.329523            -9.997077            0            -0.597823    [8[6[1][1][1]][1]]                                          
  H          -8.064790            -2.411890            -9.082494            0             0.402573    [1[8[6]]]                                                   
  H          -8.798983            -3.828442            -11.400321           0             0.031932    [1[6[8][1][1]]]                                             
  H          -7.035876            -3.412075            -11.068720           0             0.031932    [1[6[8][1][1]]]                                             
  H          -8.014309            -4.342159            -9.886195            0             0.031932    [1[6[8][1][1]]]                                             
  C          -7.249107            -2.947480            -6.183777            1             0.099454    [6[8[1]][1][1][1]]                                          
  O          -6.735730            -2.493119            -7.412848            1            -0.597823    [8[6[1][1][1]][1]]                                          
  H          -6.333320            -1.610433            -7.245291            1             0.402573    [1[8[6]]]                                                   
  H          -6.497816            -2.963742            -5.397582            1             0.031932    [1[6[8][1][1]]]                                             
  H          -8.049633            -2.287359            -5.901583            1             0.031932    [1[6[8][1][1]]]                                             
  H          -7.548377            -3.979484            -6.200580            1             0.031932    [1[6[8][1][1]]]                                             
