12

  C          -9.804069             7.900826             8.547474            0             0.099454    [6[8[1]][1][1][1]]                                          
  O          -9.071154             7.709983             9.761684            0            -0.597823    [8[6[1][1][1]][1]]                                          
  H          -8.392500             7.044270             9.630347            0             0.402573    [1[8[6]]]                                                   
  H          -10.682411            8.493206             8.766984            0             0.031932    [1[6[8][1][1]]]                                             
  H          -9.235418             8.590576             7.867122            0             0.031932    [1[6[8][1][1]]]                                             
  H          -10.142781            7.030390             7.977538            0             0.031932    [1[6[8][1][1]]]                                             
  C          -6.428802             5.383133             9.004134            1             0.099454    [6[8[1]][1][1][1]]                                          
  O          -7.383653             5.851389             8.087438            1            -0.597823    [8[6[1][1][1]][1]]                                          
  H          -7.924379             5.101137             7.863503            1             0.402573    [1[8[6]]]                                                   
  H          -5.979130             4.409062             8.790972            1             0.031932    [1[6[8][1][1]]]                                             
  H          -5.606141             6.111262             8.997180            1             0.031932    [1[6[8][1][1]]]                                             
  H          -6.861209             5.386359             10.027885           1             0.031932    [1[6[8][1][1]]]                                             
