12

  C           3.247965            -4.559031            -0.450661            0             0.099454    [6[8[1]][1][1][1]]                                          
  O           3.082228            -5.100131             0.833028            0            -0.597823    [8[6[1][1][1]][1]]                                          
  H           3.428484            -4.516003             1.598931            0             0.402573    [1[8[6]]]                                                   
  H           2.833958            -5.230700            -1.176977            0             0.031932    [1[6[8][1][1]]]                                             
  H           2.781872            -3.575299            -0.586808            0             0.031932    [1[6[8][1][1]]]                                             
  H           4.333572            -4.378047            -0.637821            0             0.031932    [1[6[8][1][1]]]                                             
  C           4.978477            -7.118794             3.916645            1             0.099454    [6[8[1]][1][1][1]]                                          
  O           4.984561            -7.466388             2.525006            1            -0.597823    [8[6[1][1][1]][1]]                                          
  H           5.848563            -7.335834             2.174196            1             0.402573    [1[8[6]]]                                                   
  H           5.878072            -6.457590             4.097344            1             0.031932    [1[6[8][1][1]]]                                             
  H           4.032489            -6.654330             4.295628            1             0.031932    [1[6[8][1][1]]]                                             
  H           5.093336            -8.044769             4.556750            1             0.031932    [1[6[8][1][1]]]                                             
