12

  C          -1.143472             3.251015            -8.383428            0             0.099454    [6[8[1]][1][1][1]]                                          
  O          -1.942154             2.903486            -9.464382            0            -0.597823    [8[6[1][1][1]][1]]                                          
  H          -1.698939             3.509440            -10.183064           0             0.402573    [1[8[6]]]                                                   
  H          -1.426148             2.504044            -7.571571            0             0.031932    [1[6[8][1][1]]]                                             
  H          -0.084644             3.152513            -8.594473            0             0.031932    [1[6[8][1][1]]]                                             
  H          -1.392792             4.268874            -8.070492            0             0.031932    [1[6[8][1][1]]]                                             
  C           0.867542             3.912928            -3.182663            1             0.099454    [6[8[1]][1][1][1]]                                          
  O           2.242398             3.624090            -3.323896            1            -0.597823    [8[6[1][1][1]][1]]                                          
  H           2.326476             3.199194            -4.209567            1             0.402573    [1[8[6]]]                                                   
  H           0.454290             2.951350            -2.958725            1             0.031932    [1[6[8][1][1]]]                                             
  H           0.678797             4.536893            -2.275241            1             0.031932    [1[6[8][1][1]]]                                             
  H           0.363630             4.368854            -4.072581            1             0.031932    [1[6[8][1][1]]]                                             
