12

  C           6.664978             3.067073             1.226311            0             0.099454    [6[8[1]][1][1][1]]                                          
  O           8.059023             2.989451             1.564592            0            -0.597823    [8[6[1][1][1]][1]]                                          
  H           8.160365             2.945944             2.478638            0             0.402573    [1[8[6]]]                                                   
  H           6.091341             2.145018             1.217380            0             0.031932    [1[6[8][1][1]]]                                             
  H           6.072127             3.731938             1.852075            0             0.031932    [1[6[8][1][1]]]                                             
  H           6.459341             3.559162             0.310594            0             0.031932    [1[6[8][1][1]]]                                             
  C           3.907215            -1.347456            -1.080740            1             0.099454    [6[8[1]][1][1][1]]                                          
  O           3.559798            -1.759737             0.190437            1            -0.597823    [8[6[1][1][1]][1]]                                          
  H           3.127090            -1.043949             0.616142            1             0.402573    [1[8[6]]]                                                   
  H           3.067104            -1.087912            -1.704948            1             0.031932    [1[6[8][1][1]]]                                             
  H           4.430530            -0.384175            -0.984382            1             0.031932    [1[6[8][1][1]]]                                             
  H           4.629387            -2.130290            -1.448063            1             0.031932    [1[6[8][1][1]]]                                             
