12

  C           7.560265             4.536154             7.578513            0             0.099454    [6[8[1]][1][1][1]]                                          
  O           7.874244             4.951479             8.946684            0            -0.597823    [8[6[1][1][1]][1]]                                          
  H           7.036518             5.037282             9.417587            0             0.402573    [1[8[6]]]                                                   
  H           7.386133             3.502118             7.605481            0             0.031932    [1[6[8][1][1]]]                                             
  H           6.612294             4.970132             7.223736            0             0.031932    [1[6[8][1][1]]]                                             
  H           8.342208             4.520084             6.856980            0             0.031932    [1[6[8][1][1]]]                                             
  C           4.180189             2.958385             8.920042            1             0.099454    [6[8[1]][1][1][1]]                                          
  O           3.642566             3.049578             7.658122            1            -0.597823    [8[6[1][1][1]][1]]                                          
  H           2.858319             2.567582             7.724482            1             0.402573    [1[8[6]]]                                                   
  H           5.314890             3.177197             8.823541            1             0.031932    [1[6[8][1][1]]]                                             
  H           3.721327             3.587053             9.702145            1             0.031932    [1[6[8][1][1]]]                                             
  H           4.083614             1.915289             9.254281            1             0.031932    [1[6[8][1][1]]]                                             
