12

  C           6.493591            -7.114689             5.665414            0             0.099454    [6[8[1]][1][1][1]]                                          
  O           7.749158            -7.200561             5.023627            0            -0.597823    [8[6[1][1][1]][1]]                                          
  H           8.417499            -7.256658             5.702624            0             0.402573    [1[8[6]]]                                                   
  H           6.411173            -7.828988             6.442911            0             0.031932    [1[6[8][1][1]]]                                             
  H           6.322881            -6.124128             6.161306            0             0.031932    [1[6[8][1][1]]]                                             
  H           5.695959            -7.314876             5.013645            0             0.031932    [1[6[8][1][1]]]                                             
  C           9.972915            -7.685073             0.459403            1             0.099454    [6[8[1]][1][1][1]]                                          
  O           9.593615            -6.860634             1.550641            1            -0.597823    [8[6[1][1][1]][1]]                                          
  H           8.854218            -7.338539             1.910346            1             0.402573    [1[8[6]]]                                                   
  H           10.720847           -8.414273             0.751041            1             0.031932    [1[6[8][1][1]]]                                             
  H           9.034047            -8.157437             0.053867            1             0.031932    [1[6[8][1][1]]]                                             
  H           10.279727           -7.073836            -0.428352            1             0.031932    [1[6[8][1][1]]]                                             
