12

  C          -2.473489             2.754382            -3.587635            0             0.099454    [6[8[1]][1][1][1]]                                          
  O          -2.443331             4.137999            -3.468418            0            -0.597823    [8[6[1][1][1]][1]]                                          
  H          -2.406738             4.647574            -4.288539            0             0.402573    [1[8[6]]]                                                   
  H          -1.822514             2.438176            -4.417710            0             0.031932    [1[6[8][1][1]]]                                             
  H          -2.095098             2.370439            -2.644488            0             0.031932    [1[6[8][1][1]]]                                             
  H          -3.458589             2.327411            -3.868728            0             0.031932    [1[6[8][1][1]]]                                             
  C           0.416081             6.341552            -3.830665            1             0.099454    [6[8[1]][1][1][1]]                                          
  O           0.004939             5.756950            -2.596167            1            -0.597823    [8[6[1][1][1]][1]]                                          
  H          -0.646958             5.116949            -2.802898            1             0.402573    [1[8[6]]]                                                   
  H          -0.303278             7.107280            -4.079319            1             0.031932    [1[6[8][1][1]]]                                             
  H           1.418122             6.880632            -3.792920            1             0.031932    [1[6[8][1][1]]]                                             
  H           0.462358             5.697803            -4.709192            1             0.031932    [1[6[8][1][1]]]                                             
