12

  C           7.892758             10.821007           -2.226867            0             0.099454    [6[8[1]][1][1][1]]                                          
  O           8.272880             9.742820            -1.404930            0            -0.597823    [8[6[1][1][1]][1]]                                          
  H           8.541633             10.062633           -0.501364            0             0.402573    [1[8[6]]]                                                   
  H           7.192416             10.442952           -2.924750            0             0.031932    [1[6[8][1][1]]]                                             
  H           7.429778             11.576646           -1.600123            0             0.031932    [1[6[8][1][1]]]                                             
  H           8.748379             11.363983           -2.592521            0             0.031932    [1[6[8][1][1]]]                                             
  C           10.089719            10.110157            2.020711            1             0.099454    [6[8[1]][1][1][1]]                                          
  O           10.281442            9.413469             0.782419            1            -0.597823    [8[6[1][1][1]][1]]                                          
  H           11.005964            9.896686             0.423732            1             0.402573    [1[8[6]]]                                                   
  H           9.528740             11.055358            1.829653            1             0.031932    [1[6[8][1][1]]]                                             
  H           9.457934             9.513034             2.708675            1             0.031932    [1[6[8][1][1]]]                                             
  H           11.075233            10.346979            2.472632            1             0.031932    [1[6[8][1][1]]]                                             
