12

  C           4.063604            -4.164335             1.522662            0             0.099454    [6[8[1]][1][1][1]]                                          
  O           3.636612            -3.300503             0.440059            0            -0.597823    [8[6[1][1][1]][1]]                                          
  H           4.382438            -2.679649             0.364125            0             0.402573    [1[8[6]]]                                                   
  H           3.242593            -4.589483             2.142196            0             0.031932    [1[6[8][1][1]]]                                             
  H           4.763362            -5.016916             1.216015            0             0.031932    [1[6[8][1][1]]]                                             
  H           4.592937            -3.590968             2.334445            0             0.031932    [1[6[8][1][1]]]                                             
  C           2.297773            -6.764124             0.287503            1             0.099454    [6[8[1]][1][1][1]]                                          
  O           2.256616            -5.790287            -0.759902            1            -0.597823    [8[6[1][1][1]][1]]                                          
  H           2.855951            -5.067472            -0.529458            1             0.402573    [1[8[6]]]                                                   
  H           1.602706            -7.583123             0.132265            1             0.031932    [1[6[8][1][1]]]                                             
  H           3.277914            -7.233672             0.455721            1             0.031932    [1[6[8][1][1]]]                                             
  H           1.867347            -6.276976             1.178452            1             0.031932    [1[6[8][1][1]]]                                             
