12

  C           11.210682            9.246803             6.188863            0             0.099454    [6[8[1]][1][1][1]]                                          
  O           11.549430            8.223964             5.224175            0            -0.597823    [8[6[1][1][1]][1]]                                          
  H           11.164311            8.328825             4.327987            0             0.402573    [1[8[6]]]                                                   
  H           10.399351            9.964930             5.876393            0             0.031932    [1[6[8][1][1]]]                                             
  H           11.010089            8.837820             7.195674            0             0.031932    [1[6[8][1][1]]]                                             
  H           12.169177            9.877960             6.296828            0             0.031932    [1[6[8][1][1]]]                                             
  C           10.510120            4.803059             2.009248            1             0.099454    [6[8[1]][1][1][1]]                                          
  O           9.511246             5.390401             2.720921            1            -0.597823    [8[6[1][1][1]][1]]                                          
  H           9.788360             6.264995             2.646968            1             0.402573    [1[8[6]]]                                                   
  H           10.256843            3.794557             1.720164            1             0.031932    [1[6[8][1][1]]]                                             
  H           10.969106            5.393652             1.241565            1             0.031932    [1[6[8][1][1]]]                                             
  H           11.349476            4.549797             2.698899            1             0.031932    [1[6[8][1][1]]]                                             
