12

  C          -6.453457            -0.292748             3.025583            0             0.099454    [6[8[1]][1][1][1]]                                          
  O          -7.118976             0.113840             4.133951            0            -0.597823    [8[6[1][1][1]][1]]                                          
  H          -6.482829             0.713591             4.577241            0             0.402573    [1[8[6]]]                                                   
  H          -7.026724            -1.111261             2.492437            0             0.031932    [1[6[8][1][1]]]                                             
  H          -6.333896             0.490249             2.235554            0             0.031932    [1[6[8][1][1]]]                                             
  H          -5.489757            -0.618275             3.381762            0             0.031932    [1[6[8][1][1]]]                                             
  C          -6.937713             2.373086             6.655401            1             0.099454    [6[8[1]][1][1][1]]                                          
  O          -5.794244             1.905989             5.977256            1            -0.597823    [8[6[1][1][1]][1]]                                          
  H          -5.128187             2.605545             6.038818            1             0.402573    [1[8[6]]]                                                   
  H          -6.876055             2.211186             7.722361            1             0.031932    [1[6[8][1][1]]]                                             
  H          -7.201990             3.407024             6.351372            1             0.031932    [1[6[8][1][1]]]                                             
  H          -7.791973             1.711379             6.400325            1             0.031932    [1[6[8][1][1]]]                                             
