12

  C          -1.555646             5.231252            -6.405208            0             0.099454    [6[8[1]][1][1][1]]                                          
  O          -0.346762             4.541400            -6.399865            0            -0.597823    [8[6[1][1][1]][1]]                                          
  H           0.267018             4.970165            -5.812395            0             0.402573    [1[8[6]]]                                                   
  H          -1.461585             6.358154            -6.598062            0             0.031932    [1[6[8][1][1]]]                                             
  H          -2.193016             4.839029            -7.166690            0             0.031932    [1[6[8][1][1]]]                                             
  H          -2.062145             5.051455            -5.484070            0             0.031932    [1[6[8][1][1]]]                                             
  C           2.163176             6.492274            -4.981907            1             0.099454    [6[8[1]][1][1][1]]                                          
  O           1.985793             5.101903            -4.804777            1            -0.597823    [8[6[1][1][1]][1]]                                          
  H           2.362999             4.914867            -3.969239            1             0.402573    [1[8[6]]]                                                   
  H           2.898402             6.911257            -4.360386            1             0.031932    [1[6[8][1][1]]]                                             
  H           2.393466             6.722393            -6.010610            1             0.031932    [1[6[8][1][1]]]                                             
  H           1.274072             6.999518            -4.632095            1             0.031932    [1[6[8][1][1]]]                                             
