12

  C          -6.089729             4.718462            -4.995477            0             0.099454    [6[8[1]][1][1][1]]                                          
  O          -7.378963             5.167259            -5.188108            0            -0.597823    [8[6[1][1][1]][1]]                                          
  H          -7.301230             5.778819            -5.888763            0             0.402573    [1[8[6]]]                                                   
  H          -5.713952             4.882978            -3.965145            0             0.031932    [1[6[8][1][1]]]                                             
  H          -6.106463             3.570739            -5.127612            0             0.031932    [1[6[8][1][1]]]                                             
  H          -5.362559             5.028709            -5.773777            0             0.031932    [1[6[8][1][1]]]                                             
  C          -8.716310             2.595743            -4.167450            1             0.099454    [6[8[1]][1][1][1]]                                          
  O          -8.870801             2.724648            -5.558098            1            -0.597823    [8[6[1][1][1]][1]]                                          
  H          -8.428671             3.546581            -5.726210            1             0.402573    [1[8[6]]]                                                   
  H          -9.260913             3.374342            -3.604034            1             0.031932    [1[6[8][1][1]]]                                             
  H          -9.121703             1.675237            -3.742052            1             0.031932    [1[6[8][1][1]]]                                             
  H          -7.700378             2.652149            -3.928569            1             0.031932    [1[6[8][1][1]]]                                             
