12

  C          -2.287004            -7.105774            -7.763036            0             0.099454    [6[8[1]][1][1][1]]                                          
  O          -0.949285            -7.170664            -8.203545            0            -0.597823    [8[6[1][1][1]][1]]                                          
  H          -0.939735            -7.506460            -9.050222            0             0.402573    [1[8[6]]]                                                   
  H          -2.333886            -6.430946            -6.937260            0             0.031932    [1[6[8][1][1]]]                                             
  H          -2.922818            -6.617067            -8.546304            0             0.031932    [1[6[8][1][1]]]                                             
  H          -2.776979            -8.069040            -7.408969            0             0.031932    [1[6[8][1][1]]]                                             
  C          -0.907765            -10.387057           -7.837134            1             0.099454    [6[8[1]][1][1][1]]                                          
  O           0.405391            -10.686019           -7.496707            1            -0.597823    [8[6[1][1][1]][1]]                                          
  H           0.426644            -10.754461           -6.527792            1             0.402573    [1[8[6]]]                                                   
  H          -1.282115            -9.678535            -7.062980            1             0.031932    [1[6[8][1][1]]]                                             
  H          -0.910572            -9.964160            -8.848894            1             0.031932    [1[6[8][1][1]]]                                             
  H          -1.557584            -11.213663           -7.775463            1             0.031932    [1[6[8][1][1]]]                                             
