12

  C           4.463888             10.329483            8.452455            0             0.099454    [6[8[1]][1][1][1]]                                          
  O           5.053410             11.626280            8.445353            0            -0.597823    [8[6[1][1][1]][1]]                                          
  H           5.107064             11.999492            9.351809            0             0.402573    [1[8[6]]]                                                   
  H           3.465351             10.341592            8.955897            0             0.031932    [1[6[8][1][1]]]                                             
  H           4.478914             10.000706            7.463618            0             0.031932    [1[6[8][1][1]]]                                             
  H           5.187701             9.732460             8.978266            0             0.031932    [1[6[8][1][1]]]                                             
  C           4.918881             5.852485             9.923070            1             0.099454    [6[8[1]][1][1][1]]                                          
  O           5.420235             7.182159             9.840038            1            -0.597823    [8[6[1][1][1]][1]]                                          
  H           6.326654             7.184408             9.631924            1             0.402573    [1[8[6]]]                                                   
  H           5.399851             5.240885             10.678256           1             0.031932    [1[6[8][1][1]]]                                             
  H           3.839993             5.811326             10.163391           1             0.031932    [1[6[8][1][1]]]                                             
  H           5.111345             5.355015             8.953127            1             0.031932    [1[6[8][1][1]]]                                             
