12

  C          -1.657348            -2.605589             3.107495            0             0.099454    [6[8[1]][1][1][1]]                                          
  O          -1.433084            -3.963794             3.336402            0            -0.597823    [8[6[1][1][1]][1]]                                          
  H          -1.822367            -4.471035             2.634541            0             0.402573    [1[8[6]]]                                                   
  H          -1.025186            -1.978984             3.793105            0             0.031932    [1[6[8][1][1]]]                                             
  H          -1.370348            -2.277809             2.137469            0             0.031932    [1[6[8][1][1]]]                                             
  H          -2.655147            -2.318401             3.325334            0             0.031932    [1[6[8][1][1]]]                                             
  C          -2.824209            -7.043111             1.849998            1             0.099454    [6[8[1]][1][1][1]]                                          
  O          -2.415118            -5.932369             1.193276            1            -0.597823    [8[6[1][1][1]][1]]                                          
  H          -1.603743            -6.021471             0.731254            1             0.402573    [1[8[6]]]                                                   
  H          -1.950311            -7.530693             2.177517            1             0.031932    [1[6[8][1][1]]]                                             
  H          -3.591103            -6.913765             2.613869            1             0.031932    [1[6[8][1][1]]]                                             
  H          -3.313529            -7.756251             1.091547            1             0.031932    [1[6[8][1][1]]]                                             
