12

  C           3.346385             5.166609            -0.324777            0             0.099454    [6[8[1]][1][1][1]]                                          
  O           4.605433             4.856927            -0.851271            0            -0.597823    [8[6[1][1][1]][1]]                                          
  H           4.735588             5.658297            -1.389277            0             0.402573    [1[8[6]]]                                                   
  H           2.939554             4.225934            -0.016089            0             0.031932    [1[6[8][1][1]]]                                             
  H           3.411675             5.727115             0.579502            0             0.031932    [1[6[8][1][1]]]                                             
  H           2.613158             5.716876            -1.000328            0             0.031932    [1[6[8][1][1]]]                                             
  C          -0.749633             2.416253            -3.313901            1             0.099454    [6[8[1]][1][1][1]]                                          
  O          -0.861180             1.452458            -2.250456            1            -0.597823    [8[6[1][1][1]][1]]                                          
  H           0.018248             1.215378            -2.084135            1             0.402573    [1[8[6]]]                                                   
  H          -1.723585             2.657808            -3.810069            1             0.031932    [1[6[8][1][1]]]                                             
  H          -0.325219             3.272619            -2.879507            1             0.031932    [1[6[8][1][1]]]                                             
  H          -0.054227             2.091398            -4.053934            1             0.031932    [1[6[8][1][1]]]                                             
