12

  C           7.735640            -3.628557            -5.394134            0             0.099454    [6[8[1]][1][1][1]]                                          
  O           6.374040            -3.628548            -5.142410            0            -0.597823    [8[6[1][1][1]][1]]                                          
  H           5.933957            -4.477045            -5.105908            0             0.402573    [1[8[6]]]                                                   
  H           8.304852            -3.877057            -4.570331            0             0.031932    [1[6[8][1][1]]]                                             
  H           7.857922            -4.475036            -6.074864            0             0.031932    [1[6[8][1][1]]]                                             
  H           8.076524            -2.769222            -5.967372            0             0.031932    [1[6[8][1][1]]]                                             
  C           6.852534            -0.651808            -8.123853            1             0.099454    [6[8[1]][1][1][1]]                                          
  O           6.081490             0.505833            -8.526992            1            -0.597823    [8[6[1][1][1]][1]]                                          
  H           6.589264             1.284014            -8.734406            1             0.402573    [1[8[6]]]                                                   
  H           6.153322            -1.496321            -8.012773            1             0.031932    [1[6[8][1][1]]]                                             
  H           7.725909            -0.850191            -8.732376            1             0.031932    [1[6[8][1][1]]]                                             
  H           7.268838            -0.484203            -7.133630            1             0.031932    [1[6[8][1][1]]]                                             
