12

  C           6.555521             2.875121             5.302771            0             0.099454    [6[8[1]][1][1][1]]                                          
  O           5.960526             2.912413             6.541502            0            -0.597823    [8[6[1][1][1]][1]]                                          
  H           5.034107             2.707951             6.433674            0             0.402573    [1[8[6]]]                                                   
  H           6.880396             3.815636             4.981021            0             0.031932    [1[6[8][1][1]]]                                             
  H           7.546284             2.419773             5.320943            0             0.031932    [1[6[8][1][1]]]                                             
  H           5.929050             2.395693             4.578541            0             0.031932    [1[6[8][1][1]]]                                             
  C           3.227038             0.299315             2.583247            1             0.099454    [6[8[1]][1][1][1]]                                          
  O           2.666419             0.055697             1.319139            1            -0.597823    [8[6[1][1][1]][1]]                                          
  H           2.532418            -0.879725             1.086573            1             0.402573    [1[8[6]]]                                                   
  H           4.019190            -0.355166             2.838296            1             0.031932    [1[6[8][1][1]]]                                             
  H           3.630524             1.336282             2.668777            1             0.031932    [1[6[8][1][1]]]                                             
  H           2.489073             0.331264             3.443880            1             0.031932    [1[6[8][1][1]]]                                             
