12

  C           0.729532             5.280987             0.792221            0             0.099454    [6[8[1]][1][1][1]]                                          
  O           0.011848             4.968392            -0.373084            0            -0.597823    [8[6[1][1][1]][1]]                                          
  H          -0.194236             5.859441            -0.599549            0             0.402573    [1[8[6]]]                                                   
  H           1.347677             4.466694             1.117791            0             0.031932    [1[6[8][1][1]]]                                             
  H           1.488634             6.100130             0.576506            0             0.031932    [1[6[8][1][1]]]                                             
  H          -0.035568             5.478909             1.575330            0             0.031932    [1[6[8][1][1]]]                                             
  C           2.163176             6.492274            -4.981907            1             0.099454    [6[8[1]][1][1][1]]                                          
  O           1.985793             5.101903            -4.804777            1            -0.597823    [8[6[1][1][1]][1]]                                          
  H           2.362999             4.914867            -3.969239            1             0.402573    [1[8[6]]]                                                   
  H           2.898402             6.911257            -4.360386            1             0.031932    [1[6[8][1][1]]]                                             
  H           2.393466             6.722393            -6.010610            1             0.031932    [1[6[8][1][1]]]                                             
  H           1.274072             6.999518            -4.632095            1             0.031932    [1[6[8][1][1]]]                                             
