12

  C          -4.001292             5.700041             11.026275           0             0.099454    [6[8[1]][1][1][1]]                                          
  O          -3.086965             5.555457             9.920102            0            -0.597823    [8[6[1][1][1]][1]]                                          
  H          -2.367967             6.146032             10.115542           0             0.402573    [1[8[6]]]                                                   
  H          -3.679989             5.258567             11.966806           0             0.031932    [1[6[8][1][1]]]                                             
  H          -4.174496             6.808621             11.212356           0             0.031932    [1[6[8][1][1]]]                                             
  H          -4.976876             5.231528             10.844541           0             0.031932    [1[6[8][1][1]]]                                             
  C          -3.634617             5.482813             6.223014            1             0.099454    [6[8[1]][1][1][1]]                                          
  O          -3.845451             4.558936             7.253444            1            -0.597823    [8[6[1][1][1]][1]]                                          
  H          -3.837731             5.120619             8.113329            1             0.402573    [1[8[6]]]                                                   
  H          -2.854401             6.247456             6.538076            1             0.031932    [1[6[8][1][1]]]                                             
  H          -3.288832             4.977465             5.315011            1             0.031932    [1[6[8][1][1]]]                                             
  H          -4.539207             5.985702             5.839303            1             0.031932    [1[6[8][1][1]]]                                             
