12

  C           7.285926             0.821066             2.316241            0             0.099454    [6[8[1]][1][1][1]]                                          
  O           7.532912             0.471736             1.007627            0            -0.597823    [8[6[1][1][1]][1]]                                          
  H           8.045949            -0.406475             0.930814            0             0.402573    [1[8[6]]]                                                   
  H           7.486048            -0.087081             3.004934            0             0.031932    [1[6[8][1][1]]]                                             
  H           7.841240             1.695538             2.765298            0             0.031932    [1[6[8][1][1]]]                                             
  H           6.188296             0.937388             2.320612            0             0.031932    [1[6[8][1][1]]]                                             
  C           9.005637            -2.727195            -0.447408            1             0.099454    [6[8[1]][1][1][1]]                                          
  O           9.309623            -1.997520             0.738286            1            -0.597823    [8[6[1][1][1]][1]]                                          
  H           10.095990           -2.459331             1.103238            1             0.402573    [1[8[6]]]                                                   
  H           9.924070            -3.188769            -0.763899            1             0.031932    [1[6[8][1][1]]]                                             
  H           8.322040            -3.520281            -0.232930            1             0.031932    [1[6[8][1][1]]]                                             
  H           8.695189            -2.061512            -1.249719            1             0.031932    [1[6[8][1][1]]]                                             
