12

  C           7.094991            -5.874388             4.295036            0             0.099454    [6[8[1]][1][1][1]]                                          
  O           6.607568            -5.115187             5.413430            0            -0.597823    [8[6[1][1][1]][1]]                                          
  H           6.014298            -4.411971             5.145993            0             0.402573    [1[8[6]]]                                                   
  H           6.600203            -5.667700             3.315345            0             0.031932    [1[6[8][1][1]]]                                             
  H           8.165961            -5.827261             4.147364            0             0.031932    [1[6[8][1][1]]]                                             
  H           6.868536            -6.907309             4.499651            0             0.031932    [1[6[8][1][1]]]                                             
  C           1.290066            -7.410364             4.128499            1             0.099454    [6[8[1]][1][1][1]]                                          
  O           2.493319            -6.689525             4.556099            1            -0.597823    [8[6[1][1][1]][1]]                                          
  H           3.045168            -7.275594             5.105146            1             0.402573    [1[8[6]]]                                                   
  H           1.490086            -8.446307             4.137986            1             0.031932    [1[6[8][1][1]]]                                             
  H           0.552805            -7.292973             4.896232            1             0.031932    [1[6[8][1][1]]]                                             
  H           0.879620            -7.148192             3.076627            1             0.031932    [1[6[8][1][1]]]                                             
