12

  C          -7.108575             6.913722            -0.857616            0             0.099454    [6[8[1]][1][1][1]]                                          
  O          -5.910933             6.151993            -0.758104            0            -0.597823    [8[6[1][1][1]][1]]                                          
  H          -6.108608             5.514156             0.021846            0             0.402573    [1[8[6]]]                                                   
  H          -8.052278             6.348833            -0.737678            0             0.031932    [1[6[8][1][1]]]                                             
  H          -7.212517             7.592448            -0.076732            0             0.031932    [1[6[8][1][1]]]                                             
  H          -7.252339             7.360240            -1.857203            0             0.031932    [1[6[8][1][1]]]                                             
  C          -5.437243             2.893795             0.003744            1             0.099454    [6[8[1]][1][1][1]]                                          
  O          -6.339473             3.830913             0.590663            1            -0.597823    [8[6[1][1][1]][1]]                                          
  H          -6.962244             3.262412             1.060430            1             0.402573    [1[8[6]]]                                                   
  H          -4.843288             2.338916             0.754672            1             0.031932    [1[6[8][1][1]]]                                             
  H          -6.034146             2.131542            -0.547641            1             0.031932    [1[6[8][1][1]]]                                             
  H          -4.777210             3.354782            -0.710811            1             0.031932    [1[6[8][1][1]]]                                             
