12

  C           10.369788           -1.022027             1.137112            0             0.099454    [6[8[1]][1][1][1]]                                          
  O           9.385676            -0.662923             2.037067            0            -0.597823    [8[6[1][1][1]][1]]                                          
  H           8.915815            -1.406507             2.396030            0             0.402573    [1[8[6]]]                                                   
  H           9.951602            -1.529467             0.290434            0             0.031932    [1[6[8][1][1]]]                                             
  H           10.979370           -0.132618             0.842871            0             0.031932    [1[6[8][1][1]]]                                             
  H           10.919377           -1.856796             1.581003            0             0.031932    [1[6[8][1][1]]]                                             
  C           8.857592             2.913013             0.492964            1             0.099454    [6[8[1]][1][1][1]]                                          
  O           9.160017             2.336251             1.729233            1            -0.597823    [8[6[1][1][1]][1]]                                          
  H           9.061185             1.355895             1.790818            1             0.402573    [1[8[6]]]                                                   
  H           8.698384             2.066956            -0.234458            1             0.031932    [1[6[8][1][1]]]                                             
  H           8.023771             3.577609             0.547842            1             0.031932    [1[6[8][1][1]]]                                             
  H           9.634283             3.496865             0.198177            1             0.031932    [1[6[8][1][1]]]                                             
