6

  C           7.449275             5.855548            -3.125336            0             0.089063    [6[8[1]][1][1][1]]                                          
  O           6.806401             6.701645            -2.174823            0            -0.604789    [8[6[1][1][1]][1]]                                          
  H           7.231785             6.609448            -1.354202            0             0.406250    [1[8[6]]]                                                   
  H           7.131053             5.972635            -4.191377            0             0.036492    [1[6[8][1][1]]]                                             
  H           8.536819             6.007422            -2.936056            0             0.036492    [1[6[8][1][1]]]                                             
  H           7.338949             4.778704            -2.898458            0             0.036492    [1[6[8][1][1]]]                                             
