12

  C           8.849707            -4.694497             6.560075            0             0.099454    [6[8[1]][1][1][1]]                                          
  O           9.612996            -3.634739             6.061189            0            -0.597823    [8[6[1][1][1]][1]]                                          
  H           10.178477           -3.856091             5.309947            0             0.402573    [1[8[6]]]                                                   
  H           9.444799            -5.519366             6.956617            0             0.031932    [1[6[8][1][1]]]                                             
  H           8.068576            -4.283901             7.202279            0             0.031932    [1[6[8][1][1]]]                                             
  H           8.338581            -5.109527             5.700484            0             0.031932    [1[6[8][1][1]]]                                             
  C           9.576220            -0.742212             7.666860            1             0.099454    [6[8[1]][1][1][1]]                                          
  O           8.146093            -0.719012             7.663289            1            -0.597823    [8[6[1][1][1]][1]]                                          
  H           7.819435            -1.581281             7.522280            1             0.402573    [1[8[6]]]                                                   
  H           9.963115             0.255649             7.927837            1             0.031932    [1[6[8][1][1]]]                                             
  H           9.942370            -1.517336             8.318897            1             0.031932    [1[6[8][1][1]]]                                             
  H           10.023273           -1.076571             6.697711            1             0.031932    [1[6[8][1][1]]]                                             
