8

Br  1.01938000           0.00696000           0.01226000         
C  2.95422000          -0.04878000           0.09071000         
C  3.40750000          -0.90320000           1.26574000         
Br  5.34235000          -0.95894000           1.34419000         
H  3.33801000           0.98701000           0.20507000         
H  3.33902000          -0.47620000          -0.85928000         
H  3.02371000          -1.93898000           1.15138000         
H  3.02271000          -0.47578000           2.21573000         
