12

  C          -7.103731             6.653923            -1.669574            0             0.099454    [6[8[1]][1][1][1]]                                          
  O          -6.894566             5.210805            -1.789627            0            -0.597823    [8[6[1][1][1]][1]]                                          
  H          -7.334692             4.689197            -1.072243            0             0.402573    [1[8[6]]]                                                   
  H          -8.194465             6.918869            -1.815733            0             0.031932    [1[6[8][1][1]]]                                             
  H          -6.801057             7.072376            -0.661411            0             0.031932    [1[6[8][1][1]]]                                             
  H          -6.560077             7.160748            -2.438667            0             0.031932    [1[6[8][1][1]]]                                             
  C          -5.629599             2.838499            -4.257140            1             0.099454    [6[8[1]][1][1][1]]                                          
  O          -6.149862             4.151956            -4.511084            1            -0.597823    [8[6[1][1][1]][1]]                                          
  H          -6.244268             4.592923            -3.678162            1             0.402573    [1[8[6]]]                                                   
  H          -4.527856             2.807374            -4.087594            1             0.031932    [1[6[8][1][1]]]                                             
  H          -5.985739             2.538664            -3.276288            1             0.031932    [1[6[8][1][1]]]                                             
  H          -5.935220             2.070424            -4.993791            1             0.031932    [1[6[8][1][1]]]                                             
