12

  C           5.008507            -2.931150            -6.739641            0             0.099454    [6[8[1]][1][1][1]]                                          
  O           3.743547            -2.944197            -6.202089            0            -0.597823    [8[6[1][1][1]][1]]                                          
  H           3.206737            -3.256923            -6.888569            0             0.402573    [1[8[6]]]                                                   
  H           5.137489            -3.022514            -7.878077            0             0.031932    [1[6[8][1][1]]]                                             
  H           5.425506            -1.937246            -6.564943            0             0.031932    [1[6[8][1][1]]]                                             
  H           5.645578            -3.705248            -6.302389            0             0.031932    [1[6[8][1][1]]]                                             
  C           4.132314            -4.508000            -3.093328            1             0.099454    [6[8[1]][1][1][1]]                                          
  O           3.662731            -5.157739            -4.233245            1            -0.597823    [8[6[1][1][1]][1]]                                          
  H           3.680354            -4.542881            -5.006236            1             0.402573    [1[8[6]]]                                                   
  H           5.212760            -4.318585            -3.102616            1             0.031932    [1[6[8][1][1]]]                                             
  H           3.489929            -3.660465            -2.868530            1             0.031932    [1[6[8][1][1]]]                                             
  H           4.111447            -5.225683            -2.260201            1             0.031932    [1[6[8][1][1]]]                                             
