12

  C           9.518140            -9.620616            -3.107383            0             0.099454    [6[8[1]][1][1][1]]                                          
  O           10.506839           -9.162423            -4.033828            0            -0.597823    [8[6[1][1][1]][1]]                                          
  H           10.192911           -8.597301            -4.716816            0             0.402573    [1[8[6]]]                                                   
  H           8.766802            -8.855435            -2.834577            0             0.031932    [1[6[8][1][1]]]                                             
  H           8.944407            -10.443229           -3.539903            0             0.031932    [1[6[8][1][1]]]                                             
  H           9.859461            -9.901562            -2.110812            0             0.031932    [1[6[8][1][1]]]                                             
  C           6.363221            -8.731418            -4.928426            1             0.099454    [6[8[1]][1][1][1]]                                          
  O           6.373318            -7.934475            -3.763241            1            -0.597823    [8[6[1][1][1]][1]]                                          
  H           5.969855            -7.060342            -4.037639            1             0.402573    [1[8[6]]]                                                   
  H           7.070030            -8.380273            -5.699314            1             0.031932    [1[6[8][1][1]]]                                             
  H           6.519124            -9.815847            -4.853664            1             0.031932    [1[6[8][1][1]]]                                             
  H           5.357349            -8.753382            -5.279105            1             0.031932    [1[6[8][1][1]]]                                             
