12

  C          -5.848510            -5.431623             0.742106            0             0.099454    [6[8[1]][1][1][1]]                                          
  O          -4.870994            -4.382988             0.904018            0            -0.597823    [8[6[1][1][1]][1]]                                          
  H          -4.073636            -4.629381             0.480032            0             0.402573    [1[8[6]]]                                                   
  H          -5.482138            -6.449329             1.001130            0             0.031932    [1[6[8][1][1]]]                                             
  H          -6.796003            -5.307281             1.301016            0             0.031932    [1[6[8][1][1]]]                                             
  H          -6.195283            -5.436380            -0.241029            0             0.031932    [1[6[8][1][1]]]                                             
  C          -6.524072            -2.203817            -2.375962            1             0.099454    [6[8[1]][1][1][1]]                                          
  O          -6.769655            -2.963355            -1.148062            1            -0.597823    [8[6[1][1][1]][1]]                                          
  H          -5.922754            -2.827025            -0.644799            1             0.402573    [1[8[6]]]                                                   
  H          -5.407294            -2.234582            -2.690142            1             0.031932    [1[6[8][1][1]]]                                             
  H          -7.171416            -2.481153            -3.240957            1             0.031932    [1[6[8][1][1]]]                                             
  H          -6.743710            -1.160809            -2.321463            1             0.031932    [1[6[8][1][1]]]                                             
