12

  C           6.577847             2.978810             8.179517            0             0.099454    [6[8[1]][1][1][1]]                                          
  O           5.975196             3.353764             9.377669            0            -0.597823    [8[6[1][1][1]][1]]                                          
  H           6.506293             2.869754             10.037476           0             0.402573    [1[8[6]]]                                                   
  H           7.656711             3.391105             8.099346            0             0.031932    [1[6[8][1][1]]]                                             
  H           6.781400             1.897453             8.054072            0             0.031932    [1[6[8][1][1]]]                                             
  H           5.989922             3.391443             7.321349            0             0.031932    [1[6[8][1][1]]]                                             
  C           9.787512             2.173199             11.309051           1             0.099454    [6[8[1]][1][1][1]]                                          
  O           9.819419             2.738224             10.078496           1            -0.597823    [8[6[1][1][1]][1]]                                          
  H           8.924387             3.054027             9.903987            1             0.402573    [1[8[6]]]                                                   
  H           10.743785            1.583949             11.469471           1             0.031932    [1[6[8][1][1]]]                                             
  H           9.808702             2.923235             12.089456           1             0.031932    [1[6[8][1][1]]]                                             
  H           8.993207             1.447890             11.601513           1             0.031932    [1[6[8][1][1]]]                                             
