12

  C           7.637502            -1.565497             0.430449            0             0.099454    [6[8[1]][1][1][1]]                                          
  O           6.279459            -1.591730             0.075538            0            -0.597823    [8[6[1][1][1]][1]]                                          
  H           6.138315            -2.503580             0.236057            0             0.402573    [1[8[6]]]                                                   
  H           8.043561            -0.510717             0.303914            0             0.031932    [1[6[8][1][1]]]                                             
  H           7.798157            -1.853950             1.427963            0             0.031932    [1[6[8][1][1]]]                                             
  H           8.171181            -2.284390            -0.145285            0             0.031932    [1[6[8][1][1]]]                                             
  C           6.841558            -4.279358             3.593163            1             0.099454    [6[8[1]][1][1][1]]                                          
  O           6.967058            -5.324514             2.727259            1            -0.597823    [8[6[1][1][1]][1]]                                          
  H           6.968686            -6.154978             3.242085            1             0.402573    [1[8[6]]]                                                   
  H           6.939423            -3.275139             3.211090            1             0.031932    [1[6[8][1][1]]]                                             
  H           5.826904            -4.372985             4.033386            1             0.031932    [1[6[8][1][1]]]                                             
  H           7.520350            -4.294207             4.443900            1             0.031932    [1[6[8][1][1]]]                                             
