12

  C          -10.828315            7.027579            -4.757025            0             0.099454    [6[8[1]][1][1][1]]                                          
  O          -10.106869            6.603593            -3.607552            0            -0.597823    [8[6[1][1][1]][1]]                                          
  H          -9.513622             7.297198            -3.301831            0             0.402573    [1[8[6]]]                                                   
  H          -11.348978            7.967226            -4.578796            0             0.031932    [1[6[8][1][1]]]                                             
  H          -10.091762            7.051168            -5.597924            0             0.031932    [1[6[8][1][1]]]                                             
  H          -11.676085            6.345519            -5.050496            0             0.031932    [1[6[8][1][1]]]                                             
  C          -5.495536             7.370046            -2.403780            1             0.099454    [6[8[1]][1][1][1]]                                          
  O          -6.683170             7.089203            -3.125684            1            -0.597823    [8[6[1][1][1]][1]]                                          
  H          -6.694253             7.757936            -3.836494            1             0.402573    [1[8[6]]]                                                   
  H          -5.504102             6.859922            -1.431420            1             0.031932    [1[6[8][1][1]]]                                             
  H          -4.645820             7.093379            -2.936219            1             0.031932    [1[6[8][1][1]]]                                             
  H          -5.466681             8.422896            -2.156648            1             0.031932    [1[6[8][1][1]]]                                             
