12

  C           3.529877             9.232706            -3.207251            0             0.099454    [6[8[1]][1][1][1]]                                          
  O           4.863596             9.674193            -2.807178            0            -0.597823    [8[6[1][1][1]][1]]                                          
  H           5.455587             9.027773            -3.182617            0             0.402573    [1[8[6]]]                                                   
  H           3.334047             9.461608            -4.247411            0             0.031932    [1[6[8][1][1]]]                                             
  H           3.300273             8.202536            -2.897719            0             0.031932    [1[6[8][1][1]]]                                             
  H           2.726748             9.884370            -2.661681            0             0.031932    [1[6[8][1][1]]]                                             
  C           6.484678             7.460578            -1.082355            1             0.099454    [6[8[1]][1][1][1]]                                          
  O           5.201355             7.955092            -0.723691            1            -0.597823    [8[6[1][1][1]][1]]                                          
  H           5.254974             8.894137            -0.816187            1             0.402573    [1[8[6]]]                                                   
  H           7.325725             7.909387            -0.463628            1             0.031932    [1[6[8][1][1]]]                                             
  H           6.487008             6.411832            -0.846857            1             0.031932    [1[6[8][1][1]]]                                             
  H           6.782900             7.473782            -2.128927            1             0.031932    [1[6[8][1][1]]]                                             
