6

  C          -9.166868             8.327539             11.082167           0             0.089063    [6[8[1]][1][1][1]]                                          
  O          -10.176903            8.910970             10.274599           0            -0.604789    [8[6[1][1][1]][1]]                                          
  H          -9.875167             9.803929             10.087061           0             0.406250    [1[8[6]]]                                                   
  H          -9.414353             8.304493             12.151821           0             0.036492    [1[6[8][1][1]]]                                             
  H          -9.086034             7.326978             10.757104           0             0.036492    [1[6[8][1][1]]]                                             
  H          -8.291018             8.917708             10.935656           0             0.036492    [1[6[8][1][1]]]                                             
