12

  C           0.030276             8.955928             9.883747            0             0.099454    [6[8[1]][1][1][1]]                                          
  O           1.032094             8.316383             9.107599            0            -0.597823    [8[6[1][1][1]][1]]                                          
  H           0.648748             7.451545             8.822991            0             0.402573    [1[8[6]]]                                                   
  H           0.078628             8.686118             10.913440           0             0.031932    [1[6[8][1][1]]]                                             
  H           0.075014             10.061676            9.899508            0             0.031932    [1[6[8][1][1]]]                                             
  H          -1.002896             8.768820             9.483900            0             0.031932    [1[6[8][1][1]]]                                             
  C           0.281343             5.425971             7.271081            1             0.099454    [6[8[1]][1][1][1]]                                          
  O          -0.571326             5.965919             8.264859            1            -0.597823    [8[6[1][1][1]][1]]                                          
  H          -1.411455             5.583989             8.297878            1             0.402573    [1[8[6]]]                                                   
  H           0.226441             4.318300             7.176412            1             0.031932    [1[6[8][1][1]]]                                             
  H           0.161979             5.849751             6.212081            1             0.031932    [1[6[8][1][1]]]                                             
  H           1.319846             5.539177             7.514093            1             0.031932    [1[6[8][1][1]]]                                             
