12

  C          -3.437521             1.743393             9.429279            0             0.099454    [6[8[1]][1][1][1]]                                          
  O          -2.392920             2.601094             8.968135            0            -0.597823    [8[6[1][1][1]][1]]                                          
  H          -2.789431             3.445956             8.752653            0             0.402573    [1[8[6]]]                                                   
  H          -3.842162             2.153886             10.347907           0             0.031932    [1[6[8][1][1]]]                                             
  H          -4.226505             1.590673             8.576255            0             0.031932    [1[6[8][1][1]]]                                             
  H          -3.060894             0.726974             9.753936            0             0.031932    [1[6[8][1][1]]]                                             
  C           1.134466             1.669467             7.854700            1             0.099454    [6[8[1]][1][1][1]]                                          
  O           0.471927             2.156405             8.954086            1            -0.597823    [8[6[1][1][1]][1]]                                          
  H          -0.458943             1.970741             8.862738            1             0.402573    [1[8[6]]]                                                   
  H           1.134125             0.515744             7.875608            1             0.031932    [1[6[8][1][1]]]                                             
  H           0.764826             1.840313             6.822769            1             0.031932    [1[6[8][1][1]]]                                             
  H           2.204869             1.978863             7.814812            1             0.031932    [1[6[8][1][1]]]                                             
