12

  C           1.407148             4.682785            -1.985167            0             0.099454    [6[8[1]][1][1][1]]                                          
  O           0.389347             3.689952            -1.839461            0            -0.597823    [8[6[1][1][1]][1]]                                          
  H           0.932256             2.871912            -1.913617            0             0.402573    [1[8[6]]]                                                   
  H           2.081969             4.400590            -2.813521            0             0.031932    [1[6[8][1][1]]]                                             
  H           0.881962             5.514447            -2.269096            0             0.031932    [1[6[8][1][1]]]                                             
  H           1.978033             4.889483            -1.053356            0             0.031932    [1[6[8][1][1]]]                                             
  C           1.586198             3.064769             1.258012            1             0.099454    [6[8[1]][1][1][1]]                                          
  O           2.942958             3.362784             1.580281            1            -0.597823    [8[6[1][1][1]][1]]                                          
  H           3.444564             3.670223             0.817226            1             0.402573    [1[8[6]]]                                                   
  H           1.019516             3.962641             1.026956            1             0.031932    [1[6[8][1][1]]]                                             
  H           1.526199             2.411293             0.366586            1             0.031932    [1[6[8][1][1]]]                                             
  H           0.905983             2.694856             2.019195            1             0.031932    [1[6[8][1][1]]]                                             
