12

  C           7.290253            -9.054922            -10.074489           0             0.099454    [6[8[1]][1][1][1]]                                          
  O           7.748925            -9.996498            -10.992107           0            -0.597823    [8[6[1][1][1]][1]]                                          
  H           8.733493            -9.932072            -10.898153           0             0.402573    [1[8[6]]]                                                   
  H           6.194613            -8.997861            -10.159293           0             0.031932    [1[6[8][1][1]]]                                             
  H           7.561863            -9.324519            -9.050190            0             0.031932    [1[6[8][1][1]]]                                             
  H           7.677950            -8.070661            -10.304232           0             0.031932    [1[6[8][1][1]]]                                             
  C           11.131063           -10.118161           -11.327609           1             0.099454    [6[8[1]][1][1][1]]                                          
  O           10.422898           -9.446828            -10.378451           1            -0.597823    [8[6[1][1][1]][1]]                                          
  H           11.022477           -9.343888            -9.615207            1             0.402573    [1[8[6]]]                                                   
  H           10.498828           -10.682776           -11.989809           1             0.031932    [1[6[8][1][1]]]                                             
  H           11.814692           -9.366196            -11.897765           1             0.031932    [1[6[8][1][1]]]                                             
  H           11.764836           -10.897346           -10.847406           1             0.031932    [1[6[8][1][1]]]                                             
