12

  C           3.632446            -6.994954             3.184119            0             0.099454    [6[8[1]][1][1][1]]                                          
  O           4.407674            -7.329784             1.949356            0            -0.597823    [8[6[1][1][1]][1]]                                          
  H           4.084722            -6.757850             1.277197            0             0.402573    [1[8[6]]]                                                   
  H           3.654814            -7.907382             3.783212            0             0.031932    [1[6[8][1][1]]]                                             
  H           4.085916            -6.202538             3.691906            0             0.031932    [1[6[8][1][1]]]                                             
  H           2.536765            -6.837212             2.963092            0             0.031932    [1[6[8][1][1]]]                                             
  C           1.119483            -6.538144            -0.680068            1             0.099454    [6[8[1]][1][1][1]]                                          
  O           0.417428            -7.307162            -1.618554            1            -0.597823    [8[6[1][1][1]][1]]                                          
  H           0.481454            -6.720103            -2.408740            1             0.402573    [1[8[6]]]                                                   
  H           2.192324            -6.606482            -0.857920            1             0.031932    [1[6[8][1][1]]]                                             
  H           0.863229            -5.464750            -0.748779            1             0.031932    [1[6[8][1][1]]]                                             
  H           0.923597            -6.843216             0.363821            1             0.031932    [1[6[8][1][1]]]                                             
