12

  C          -1.145266             4.923665            -10.625641           0             0.099454    [6[8[1]][1][1][1]]                                          
  O          -0.482136             6.152050            -11.005660           0            -0.597823    [8[6[1][1][1]][1]]                                          
  H          -0.553224             6.163091            -11.985969           0             0.402573    [1[8[6]]]                                                   
  H          -1.385183             4.901109            -9.561415            0             0.031932    [1[6[8][1][1]]]                                             
  H          -2.095786             4.768359            -11.067934           0             0.031932    [1[6[8][1][1]]]                                             
  H          -0.523370             4.072885            -10.884621           0             0.031932    [1[6[8][1][1]]]                                             
  C          -1.296609             7.293209            -7.531955            1             0.099454    [6[8[1]][1][1][1]]                                          
  O          -1.946589             7.464727            -8.781406            1            -0.597823    [8[6[1][1][1]][1]]                                          
  H          -1.329584             7.170655            -9.429763            1             0.402573    [1[8[6]]]                                                   
  H          -1.560090             6.288227            -7.259894            1             0.031932    [1[6[8][1][1]]]                                             
  H          -0.201861             7.420259            -7.582336            1             0.031932    [1[6[8][1][1]]]                                             
  H          -1.695462             7.848368            -6.655559            1             0.031932    [1[6[8][1][1]]]                                             
