12

  C          -4.824653            -10.147423            5.995258            0             0.099454    [6[8[1]][1][1][1]]                                          
  O          -3.540694            -9.794573             6.520729            0            -0.597823    [8[6[1][1][1]][1]]                                          
  H          -3.402781            -8.849417             6.277806            0             0.402573    [1[8[6]]]                                                   
  H          -5.412021            -9.291457             5.854448            0             0.031932    [1[6[8][1][1]]]                                             
  H          -4.591156            -10.588656            5.073679            0             0.031932    [1[6[8][1][1]]]                                             
  H          -5.447185            -10.807198            6.600243            0             0.031932    [1[6[8][1][1]]]                                             
  C          -0.689859            -6.045129             10.141040           1             0.099454    [6[8[1]][1][1][1]]                                          
  O          -1.623886            -6.700733             9.380281            1            -0.597823    [8[6[1][1][1]][1]]                                          
  H          -1.112781            -7.355313             8.860090            1             0.402573    [1[8[6]]]                                                   
  H           0.213045            -6.562357             10.054029           1             0.031932    [1[6[8][1][1]]]                                             
  H          -0.605332            -4.968874             9.947013            1             0.031932    [1[6[8][1][1]]]                                             
  H          -0.933497            -6.123105             11.212937           1             0.031932    [1[6[8][1][1]]]                                             
