12

  C           4.682052            -4.285258             7.565120            0             0.099454    [6[8[1]][1][1][1]]                                          
  O           4.866444            -3.775011             6.253769            0            -0.597823    [8[6[1][1][1]][1]]                                          
  H           4.430609            -2.921144             6.243393            0             0.402573    [1[8[6]]]                                                   
  H           4.396078            -3.482571             8.277853            0             0.031932    [1[6[8][1][1]]]                                             
  H           3.896837            -5.017560             7.602140            0             0.031932    [1[6[8][1][1]]]                                             
  H           5.548066            -4.676643             7.981622            0             0.031932    [1[6[8][1][1]]]                                             
  C           7.263758            -1.690919             6.811487            1             0.099454    [6[8[1]][1][1][1]]                                          
  O           8.265075            -0.704323             6.669180            1            -0.597823    [8[6[1][1][1]][1]]                                          
  H           7.838670            -0.036129             6.110007            1             0.402573    [1[8[6]]]                                                   
  H           6.411662            -1.323292             7.479096            1             0.031932    [1[6[8][1][1]]]                                             
  H           6.727346            -1.871947             5.897698            1             0.031932    [1[6[8][1][1]]]                                             
  H           7.798512            -2.602327             7.203925            1             0.031932    [1[6[8][1][1]]]                                             
