12

  C           4.903913             0.406796             5.553629            0             0.099454    [6[8[1]][1][1][1]]                                          
  O           4.965341             0.096374             6.927694            0            -0.597823    [8[6[1][1][1]][1]]                                          
  H           4.245651             0.443145             7.449929            0             0.402573    [1[8[6]]]                                                   
  H           3.890953             0.251996             5.036663            0             0.031932    [1[6[8][1][1]]]                                             
  H           5.294555             1.436939             5.352639            0             0.031932    [1[6[8][1][1]]]                                             
  H           5.521654            -0.336337             5.032475            0             0.031932    [1[6[8][1][1]]]                                             
  C           4.574681            -0.210124             9.952315            1             0.099454    [6[8[1]][1][1][1]]                                          
  O           4.409818            -0.724356             11.301559           1            -0.597823    [8[6[1][1][1]][1]]                                          
  H           4.051911            -1.632650             11.382013           1             0.402573    [1[8[6]]]                                                   
  H           3.563831             0.165569             9.495236            1             0.031932    [1[6[8][1][1]]]                                             
  H           5.265943             0.683470             9.881298            1             0.031932    [1[6[8][1][1]]]                                             
  H           5.116978            -0.946608             9.333530            1             0.031932    [1[6[8][1][1]]]                                             
