12

  C          -3.843015             3.387278             11.452532           0             0.099454    [6[8[1]][1][1][1]]                                          
  O          -4.433860             3.915718             10.307268           0            -0.597823    [8[6[1][1][1]][1]]                                          
  H          -3.773737             3.785140             9.575087            0             0.402573    [1[8[6]]]                                                   
  H          -2.782898             3.479782             11.476008           0             0.031932    [1[6[8][1][1]]]                                             
  H          -4.203933             3.855851             12.326470           0             0.031932    [1[6[8][1][1]]]                                             
  H          -4.218804             2.365851             11.573091           0             0.031932    [1[6[8][1][1]]]                                             
  C          -1.636888             0.125822             9.817240            1             0.099454    [6[8[1]][1][1][1]]                                          
  O          -2.485465             0.222041             8.703885            1            -0.597823    [8[6[1][1][1]][1]]                                          
  H          -3.295915             0.624738             9.007962            1             0.402573    [1[8[6]]]                                                   
  H          -1.491694             1.081340             10.297061           1             0.031932    [1[6[8][1][1]]]                                             
  H          -2.118231            -0.588185             10.509969           1             0.031932    [1[6[8][1][1]]]                                             
  H          -0.667232            -0.283175             9.432262            1             0.031932    [1[6[8][1][1]]]                                             
