12

  C          -0.275978            -1.399052             9.199394            0             0.099454    [6[8[1]][1][1][1]]                                          
  O          -0.958128            -2.355190             10.019750           0            -0.597823    [8[6[1][1][1]][1]]                                          
  H          -0.339695            -3.022243             10.280683           0             0.402573    [1[8[6]]]                                                   
  H          -0.951116            -1.011180             8.357782            0             0.031932    [1[6[8][1][1]]]                                             
  H           0.011920            -0.481083             9.730996            0             0.031932    [1[6[8][1][1]]]                                             
  H           0.554783            -1.852173             8.677638            0             0.031932    [1[6[8][1][1]]]                                             
  C          -3.344770            -3.847323             8.213863            1             0.099454    [6[8[1]][1][1][1]]                                          
  O          -2.864211            -4.271480             9.437341            1            -0.597823    [8[6[1][1][1]][1]]                                          
  H          -2.253268            -3.623229             9.808167            1             0.402573    [1[8[6]]]                                                   
  H          -2.556921            -3.812804             7.449268            1             0.031932    [1[6[8][1][1]]]                                             
  H          -4.130952            -4.533478             7.770131            1             0.031932    [1[6[8][1][1]]]                                             
  H          -3.644031            -2.798656             8.229549            1             0.031932    [1[6[8][1][1]]]                                             
