6

  C          -6.669234            -6.682207             4.027154            0             0.089063    [6[8[1]][1][1][1]]                                          
  O          -6.441254            -8.025210             4.380223            0            -0.604789    [8[6[1][1][1]][1]]                                          
  H          -5.912950            -8.458630             3.687130            0             0.406250    [1[8[6]]]                                                   
  H          -7.144760            -6.075199             4.793607            0             0.036492    [1[6[8][1][1]]]                                             
  H          -5.752441            -6.241221             3.771780            0             0.036492    [1[6[8][1][1]]]                                             
  H          -7.269830            -6.677949             3.088454            0             0.036492    [1[6[8][1][1]]]                                             
