12

  C          -10.729189            10.556752           -1.549944            0             0.099454    [6[8[1]][1][1][1]]                                          
  O          -9.844536             9.442152            -1.851716            0            -0.597823    [8[6[1][1][1]][1]]                                          
  H          -10.201714            8.818743            -2.561734            0             0.402573    [1[8[6]]]                                                   
  H          -10.139782            11.504818           -1.443811            0             0.031932    [1[6[8][1][1]]]                                             
  H          -11.550536            10.656616           -2.308718            0             0.031932    [1[6[8][1][1]]]                                             
  H          -11.116407            10.345038           -0.564643            0             0.031932    [1[6[8][1][1]]]                                             
  C          -8.520940             6.286076            -4.403232            1             0.099454    [6[8[1]][1][1][1]]                                          
  O          -8.997023             5.176493            -3.581516            1            -0.597823    [8[6[1][1][1]][1]]                                          
  H          -8.221202             4.683733            -3.330389            1             0.402573    [1[8[6]]]                                                   
  H          -8.499745             7.139739            -3.784151            1             0.031932    [1[6[8][1][1]]]                                             
  H          -7.524745             6.049312            -4.681727            1             0.031932    [1[6[8][1][1]]]                                             
  H          -9.098874             6.502751            -5.312107            1             0.031932    [1[6[8][1][1]]]                                             
