12

  C           9.332024            -7.825781            -3.804788            0             0.099454    [6[8[1]][1][1][1]]                                          
  O           8.953421            -7.722838            -5.139420            0            -0.597823    [8[6[1][1][1]][1]]                                          
  H           8.371526            -8.481379            -5.322820            0             0.402573    [1[8[6]]]                                                   
  H           10.157458           -8.605935            -3.657025            0             0.031932    [1[6[8][1][1]]]                                             
  H           9.700460            -6.873416            -3.434979            0             0.031932    [1[6[8][1][1]]]                                             
  H           8.503247            -8.036935            -3.181149            0             0.031932    [1[6[8][1][1]]]                                             
  C           6.927127            -4.964074            -3.543295            1             0.099454    [6[8[1]][1][1][1]]                                          
  O           7.098830            -4.110192            -4.645305            1            -0.597823    [8[6[1][1][1]][1]]                                          
  H           6.671527            -4.533860            -5.377378            1             0.402573    [1[8[6]]]                                                   
  H           7.355301            -5.940963            -3.781098            1             0.031932    [1[6[8][1][1]]]                                             
  H           7.411281            -4.637179            -2.614870            1             0.031932    [1[6[8][1][1]]]                                             
  H           5.821214            -5.071691            -3.295689            1             0.031932    [1[6[8][1][1]]]                                             
