12

  C          -6.876157            -3.537889             6.430555            0             0.099454    [6[8[1]][1][1][1]]                                          
  O          -7.557125            -4.068631             5.313738            0            -0.597823    [8[6[1][1][1]][1]]                                          
  H          -6.837903            -4.361989             4.734408            0             0.402573    [1[8[6]]]                                                   
  H          -6.067335            -2.821260             6.093197            0             0.031932    [1[6[8][1][1]]]                                             
  H          -7.594730            -2.834349             6.993745            0             0.031932    [1[6[8][1][1]]]                                             
  H          -6.463546            -4.327425             7.099497            0             0.031932    [1[6[8][1][1]]]                                             
  C          -8.973832            -1.725023             0.140451            1             0.099454    [6[8[1]][1][1][1]]                                          
  O          -7.958306            -1.866058             1.059234            1            -0.597823    [8[6[1][1][1]][1]]                                          
  H          -7.846690            -2.753810             1.444923            1             0.402573    [1[8[6]]]                                                   
  H          -9.118242            -2.696230            -0.308561            1             0.031932    [1[6[8][1][1]]]                                             
  H          -9.973470            -1.537242             0.561683            1             0.031932    [1[6[8][1][1]]]                                             
  H          -8.764028            -1.059650            -0.696033            1             0.031932    [1[6[8][1][1]]]                                             
