12

  C           7.637502            -1.565497             0.430449            0             0.099454    [6[8[1]][1][1][1]]                                          
  O           6.279459            -1.591730             0.075538            0            -0.597823    [8[6[1][1][1]][1]]                                          
  H           6.138315            -2.503580             0.236057            0             0.402573    [1[8[6]]]                                                   
  H           8.043561            -0.510717             0.303914            0             0.031932    [1[6[8][1][1]]]                                             
  H           7.798157            -1.853950             1.427963            0             0.031932    [1[6[8][1][1]]]                                             
  H           8.171181            -2.284390            -0.145285            0             0.031932    [1[6[8][1][1]]]                                             
  C           10.206809            1.078521            -1.554075            1             0.099454    [6[8[1]][1][1][1]]                                          
  O           10.951794            0.939919            -2.685973            1            -0.597823    [8[6[1][1][1]][1]]                                          
  H           10.413294            1.008399            -3.440788            1             0.402573    [1[8[6]]]                                                   
  H           10.922767            1.007575            -0.680634            1             0.031932    [1[6[8][1][1]]]                                             
  H           9.666471             2.045954            -1.565513            1             0.031932    [1[6[8][1][1]]]                                             
  H           9.447073             0.300277            -1.448344            1             0.031932    [1[6[8][1][1]]]                                             
