12

  C          -0.126466            -7.668901            -4.868698            0             0.099454    [6[8[1]][1][1][1]]                                          
  O           0.538743            -8.388895            -5.905771            0            -0.597823    [8[6[1][1][1]][1]]                                          
  H           0.233319            -8.126804            -6.738606            0             0.402573    [1[8[6]]]                                                   
  H          -1.219544            -8.059974            -4.893778            0             0.031932    [1[6[8][1][1]]]                                             
  H           0.273618            -7.846774            -3.918215            0             0.031932    [1[6[8][1][1]]]                                             
  H          -0.142561            -6.508430            -5.077860            0             0.031932    [1[6[8][1][1]]]                                             
  C           3.050934            -10.665024           -4.307386            1             0.099454    [6[8[1]][1][1][1]]                                          
  O           2.092074            -10.525762           -5.298851            1            -0.597823    [8[6[1][1][1]][1]]                                          
  H           1.976535            -9.579363            -5.514077            1             0.402573    [1[8[6]]]                                                   
  H           2.688544            -10.157992           -3.413439            1             0.031932    [1[6[8][1][1]]]                                             
  H           3.253577            -11.725895           -4.103417            1             0.031932    [1[6[8][1][1]]]                                             
  H           4.051600            -10.308682           -4.484244            1             0.031932    [1[6[8][1][1]]]                                             
