12

  C           6.485865             6.830318             0.457606            0             0.099454    [6[8[1]][1][1][1]]                                          
  O           6.958456             6.355031            -0.794069            0            -0.597823    [8[6[1][1][1]][1]]                                          
  H           7.907226             6.370384            -0.741623            0             0.402573    [1[8[6]]]                                                   
  H           6.882538             7.854793             0.749982            0             0.031932    [1[6[8][1][1]]]                                             
  H           5.409756             6.912721             0.368214            0             0.031932    [1[6[8][1][1]]]                                             
  H           6.865832             6.186334             1.267891            0             0.031932    [1[6[8][1][1]]]                                             
  C           1.734881             6.465670             2.421053            1             0.099454    [6[8[1]][1][1][1]]                                          
  O           2.634085             6.724561             1.380352            1            -0.597823    [8[6[1][1][1]][1]]                                          
  H           2.969693             5.856025             1.094452            1             0.402573    [1[8[6]]]                                                   
  H           0.869834             5.980634             1.995787            1             0.031932    [1[6[8][1][1]]]                                             
  H           2.162642             5.752771             3.164728            1             0.031932    [1[6[8][1][1]]]                                             
  H           1.436188             7.411125             2.924409            1             0.031932    [1[6[8][1][1]]]                                             
