12

  C          -7.625825            -2.118438             6.216507            0             0.099454    [6[8[1]][1][1][1]]                                          
  O          -6.382549            -1.543956             6.599083            0            -0.597823    [8[6[1][1][1]][1]]                                          
  H          -6.301052            -0.573742             6.507122            0             0.402573    [1[8[6]]]                                                   
  H          -7.759299            -3.193026             6.659678            0             0.031932    [1[6[8][1][1]]]                                             
  H          -8.447343            -1.473519             6.457667            0             0.031932    [1[6[8][1][1]]]                                             
  H          -7.672048            -2.337438             5.139044            0             0.031932    [1[6[8][1][1]]]                                             
  C          -6.319022             1.751159             5.059910            1             0.099454    [6[8[1]][1][1][1]]                                          
  O          -6.857394             1.523147             6.296902            1            -0.597823    [8[6[1][1][1]][1]]                                          
  H          -7.736044             1.859153             6.281797            1             0.402573    [1[8[6]]]                                                   
  H          -5.269929             1.724765             5.106357            1             0.031932    [1[6[8][1][1]]]                                             
  H          -6.608568             0.985461             4.282150            1             0.031932    [1[6[8][1][1]]]                                             
  H          -6.567316             2.808178             4.780656            1             0.031932    [1[6[8][1][1]]]                                             
