12

  C          -10.430630            5.965214            -6.659766            0             0.099454    [6[8[1]][1][1][1]]                                          
  O          -11.506915            6.842817            -6.664926            0            -0.597823    [8[6[1][1][1]][1]]                                          
  H          -12.269845            6.244401            -6.518812            0             0.402573    [1[8[6]]]                                                   
  H          -10.239529            5.594698            -5.660409            0             0.031932    [1[6[8][1][1]]]                                             
  H          -10.552653            5.211127            -7.463928            0             0.031932    [1[6[8][1][1]]]                                             
  H          -9.466643             6.469908            -6.833632            0             0.031932    [1[6[8][1][1]]]                                             
  C          -8.073983             1.833345            -9.588540            1             0.099454    [6[8[1]][1][1][1]]                                          
  O          -7.130411             2.584063            -8.864001            1            -0.597823    [8[6[1][1][1]][1]]                                          
  H          -6.456292             1.998703            -8.551465            1             0.402573    [1[8[6]]]                                                   
  H          -8.235140             0.778497            -9.290424            1             0.031932    [1[6[8][1][1]]]                                             
  H          -9.112701             2.244961            -9.539074            1             0.031932    [1[6[8][1][1]]]                                             
  H          -7.848559             1.591181            -10.633758           1             0.031932    [1[6[8][1][1]]]                                             
