12

  C          -7.670524             1.589111             5.019114            0             0.099454    [6[8[1]][1][1][1]]                                          
  O          -7.899167             3.008859             4.966002            0            -0.597823    [8[6[1][1][1]][1]]                                          
  H          -7.537661             3.317314             4.077069            0             0.402573    [1[8[6]]]                                                   
  H          -7.944804             1.121915             4.083185            0             0.031932    [1[6[8][1][1]]]                                             
  H          -6.718689             1.262393             5.348484            0             0.031932    [1[6[8][1][1]]]                                             
  H          -8.318081             1.192866             5.761390            0             0.031932    [1[6[8][1][1]]]                                             
  C          -11.249174            2.018224             5.395163            1             0.099454    [6[8[1]][1][1][1]]                                          
  O          -10.634018            3.354803             5.549049            1            -0.597823    [8[6[1][1][1]][1]]                                          
  H          -9.685463             3.182150             5.422154            1             0.402573    [1[8[6]]]                                                   
  H          -12.363706            2.057807             5.528582            1             0.031932    [1[6[8][1][1]]]                                             
  H          -11.108641            1.548726             4.443364            1             0.031932    [1[6[8][1][1]]]                                             
  H          -10.909125            1.291521             6.139330            1             0.031932    [1[6[8][1][1]]]                                             
