12

  C           6.352193             4.195746            -4.190666            0             0.099454    [6[8[1]][1][1][1]]                                          
  O           5.100575             4.500113            -4.616961            0            -0.597823    [8[6[1][1][1]][1]]                                          
  H           4.495087             4.304367            -3.860152            0             0.402573    [1[8[6]]]                                                   
  H           7.093230             4.700914            -4.815245            0             0.031932    [1[6[8][1][1]]]                                             
  H           6.551793             4.589563            -3.174605            0             0.031932    [1[6[8][1][1]]]                                             
  H           6.623159             3.143777            -4.209572            0             0.031932    [1[6[8][1][1]]]                                             
  C           3.270100             3.122538            -7.130253            1             0.099454    [6[8[1]][1][1][1]]                                          
  O           3.381538             2.572077            -5.852959            1            -0.597823    [8[6[1][1][1]][1]]                                          
  H           4.009754             3.136969            -5.411769            1             0.402573    [1[8[6]]]                                                   
  H           3.960779             3.980982            -7.247778            1             0.031932    [1[6[8][1][1]]]                                             
  H           3.434063             2.453098            -7.943087            1             0.031932    [1[6[8][1][1]]]                                             
  H           2.231694             3.476196            -7.282018            1             0.031932    [1[6[8][1][1]]]                                             
