12

  C          -5.919274            -3.266028            -9.765933            0             0.099454    [6[8[1]][1][1][1]]                                          
  O          -7.007712            -2.477800            -10.131426           0            -0.597823    [8[6[1][1][1]][1]]                                          
  H          -7.419284            -2.264709            -9.271346            0             0.402573    [1[8[6]]]                                                   
  H          -5.092639            -3.122663            -10.527099           0             0.031932    [1[6[8][1][1]]]                                             
  H          -5.501222            -2.933932            -8.783267            0             0.031932    [1[6[8][1][1]]]                                             
  H          -6.205399            -4.343898            -9.720369            0             0.031932    [1[6[8][1][1]]]                                             
  C          -8.175844            -6.461726            -9.529841            1             0.099454    [6[8[1]][1][1][1]]                                          
  O          -6.888502            -6.628987            -8.963924            1            -0.597823    [8[6[1][1][1]][1]]                                          
  H          -6.925999            -7.424524            -8.347092            1             0.402573    [1[8[6]]]                                                   
  H          -8.688891            -7.439171            -9.596102            1             0.031932    [1[6[8][1][1]]]                                             
  H          -8.830355            -5.949237            -8.826932            1             0.031932    [1[6[8][1][1]]]                                             
  H          -8.134614            -6.010198            -10.551838           1             0.031932    [1[6[8][1][1]]]                                             
