12

  C          -2.615448            -10.755304            2.628873            0             0.099454    [6[8[1]][1][1][1]]                                          
  O          -2.908532            -9.997534             1.453146            0            -0.597823    [8[6[1][1][1]][1]]                                          
  H          -3.393054            -10.558160            0.797230            0             0.402573    [1[8[6]]]                                                   
  H          -3.465573            -11.407798            2.994486            0             0.031932    [1[6[8][1][1]]]                                             
  H          -1.643496            -11.228046            2.392343            0             0.031932    [1[6[8][1][1]]]                                             
  H          -2.479222            -10.048655            3.452952            0             0.031932    [1[6[8][1][1]]]                                             
  C          -5.962459            -8.021586             1.465362            1             0.099454    [6[8[1]][1][1][1]]                                          
  O          -5.627130            -8.082584             2.823401            1            -0.597823    [8[6[1][1][1]][1]]                                          
  H          -4.845257            -8.568784             3.022787            1             0.402573    [1[8[6]]]                                                   
  H          -5.807610            -9.027297             1.034918            1             0.031932    [1[6[8][1][1]]]                                             
  H          -7.024644            -7.824120             1.297368            1             0.031932    [1[6[8][1][1]]]                                             
  H          -5.520833            -7.173313             0.824412            1             0.031932    [1[6[8][1][1]]]                                             
