12

  C          -5.096008            -3.753451             3.326381            0             0.099454    [6[8[1]][1][1][1]]                                          
  O          -5.380777            -2.400970             2.826767            0            -0.597823    [8[6[1][1][1]][1]]                                          
  H          -4.569839            -1.883165             2.985100            0             0.402573    [1[8[6]]]                                                   
  H          -5.602730            -3.811661             4.240219            0             0.031932    [1[6[8][1][1]]]                                             
  H          -5.307437            -4.498748             2.542012            0             0.031932    [1[6[8][1][1]]]                                             
  H          -4.063225            -3.850784             3.599259            0             0.031932    [1[6[8][1][1]]]                                             
  C          -8.231021            -2.321032             5.418552            1             0.099454    [6[8[1]][1][1][1]]                                          
  O          -7.593325            -1.459487             4.532825            1            -0.597823    [8[6[1][1][1]][1]]                                          
  H          -7.053479            -1.994212             3.917231            1             0.402573    [1[8[6]]]                                                   
  H          -8.694611            -1.840338             6.231808            1             0.031932    [1[6[8][1][1]]]                                             
  H          -9.013949            -2.975823             4.948725            1             0.031932    [1[6[8][1][1]]]                                             
  H          -7.423615            -2.892773             5.845033            1             0.031932    [1[6[8][1][1]]]                                             
