12

  C          -3.015513             4.657646             8.973627            0             0.099454    [6[8[1]][1][1][1]]                                          
  O          -1.868843             4.290034             9.722191            0            -0.597823    [8[6[1][1][1]][1]]                                          
  H          -1.130121             4.887643             9.436925            0             0.402573    [1[8[6]]]                                                   
  H          -2.824309             4.660446             7.877721            0             0.031932    [1[6[8][1][1]]]                                             
  H          -3.872396             3.998280             9.281944            0             0.031932    [1[6[8][1][1]]]                                             
  H          -3.256881             5.665914             9.192009            0             0.031932    [1[6[8][1][1]]]                                             
  C           0.073207             3.280420             4.744708            1             0.099454    [6[8[1]][1][1][1]]                                          
  O          -0.777346             4.145417             5.499248            1            -0.597823    [8[6[1][1][1]][1]]                                          
  H          -0.465038             4.121903             6.407785            1             0.402573    [1[8[6]]]                                                   
  H           1.088714             3.540638             4.926400            1             0.031932    [1[6[8][1][1]]]                                             
  H           0.023586             2.303060             5.157050            1             0.031932    [1[6[8][1][1]]]                                             
  H          -0.040117             3.339934             3.648191            1             0.031932    [1[6[8][1][1]]]                                             
