12

  C           5.326910             4.806322            -3.533113            0             0.099454    [6[8[1]][1][1][1]]                                          
  O           6.034877             3.972360            -4.447765            0            -0.597823    [8[6[1][1][1]][1]]                                          
  H           6.237275             3.163824            -3.960999            0             0.402573    [1[8[6]]]                                                   
  H           6.014065             5.326131            -2.833834            0             0.031932    [1[6[8][1][1]]]                                             
  H           4.817935             5.581777            -4.157801            0             0.031932    [1[6[8][1][1]]]                                             
  H           4.623172             4.233674            -2.922331            0             0.031932    [1[6[8][1][1]]]                                             
  C           0.577072             7.430577            -5.325749            1             0.099454    [6[8[1]][1][1][1]]                                          
  O          -0.539211             6.571745            -5.105877            1            -0.597823    [8[6[1][1][1]][1]]                                          
  H          -0.771812             6.328538            -6.027023            1             0.402573    [1[8[6]]]                                                   
  H           1.232494             7.362839            -4.458135            1             0.031932    [1[6[8][1][1]]]                                             
  H           1.010095             7.216277            -6.323681            1             0.031932    [1[6[8][1][1]]]                                             
  H           0.174260             8.464364            -5.333653            1             0.031932    [1[6[8][1][1]]]                                             
