12

  C          -3.366488             1.354718             8.299496            0             0.099454    [6[8[1]][1][1][1]]                                          
  O          -2.747762             2.580068             8.513952            0            -0.597823    [8[6[1][1][1]][1]]                                          
  H          -2.097212             2.607204             7.804503            0             0.402573    [1[8[6]]]                                                   
  H          -3.091532             0.606645             9.087924            0             0.031932    [1[6[8][1][1]]]                                             
  H          -4.464560             1.385830             8.357553            0             0.031932    [1[6[8][1][1]]]                                             
  H          -3.098089             0.935276             7.304372            0             0.031932    [1[6[8][1][1]]]                                             
  C          -3.152113            -1.685180             5.511687            1             0.099454    [6[8[1]][1][1][1]]                                          
  O          -3.578452            -2.644021             4.578806            1            -0.597823    [8[6[1][1][1]][1]]                                          
  H          -2.831220            -3.224825             4.420491            1             0.402573    [1[8[6]]]                                                   
  H          -2.231712            -1.127083             5.128433            1             0.031932    [1[6[8][1][1]]]                                             
  H          -3.887088            -1.022022             5.889255            1             0.031932    [1[6[8][1][1]]]                                             
  H          -2.718246            -2.180419             6.352590            1             0.031932    [1[6[8][1][1]]]                                             
