12

  C          -1.953081             0.452528            -0.283085            0             0.099454    [6[8[1]][1][1][1]]                                          
  O          -2.417833             1.621188             0.379749            0            -0.597823    [8[6[1][1][1]][1]]                                          
  H          -2.843032             1.413224             1.202916            0             0.402573    [1[8[6]]]                                                   
  H          -2.778291            -0.140561            -0.668962            0             0.031932    [1[6[8][1][1]]]                                             
  H          -1.331316             0.778315            -1.150622            0             0.031932    [1[6[8][1][1]]]                                             
  H          -1.219793            -0.095008             0.314135            0             0.031932    [1[6[8][1][1]]]                                             
  C          -4.309679             0.139881             3.274753            1             0.099454    [6[8[1]][1][1][1]]                                          
  O          -3.997063             1.453591             2.977763            1            -0.597823    [8[6[1][1][1]][1]]                                          
  H          -4.850942             1.963425             2.857807            1             0.402573    [1[8[6]]]                                                   
  H          -4.736021            -0.485051             2.500253            1             0.031932    [1[6[8][1][1]]]                                             
  H          -3.409156            -0.389718             3.671393            1             0.031932    [1[6[8][1][1]]]                                             
  H          -5.119480             0.125753             4.057112            1             0.031932    [1[6[8][1][1]]]                                             
