6

C                    3.011548             -1.181306            0.598333            
O                    4.394913             -1.128459            0.874149            
H                    4.772436             -0.379431            0.412335            
H                    2.806674             -1.319374            -0.469508           
H                    2.611872             -2.040674            1.135740            
H                    2.484517             -0.284082            0.945817            
6

C                    3.011500             -1.181224            0.598365            
O                    4.394865             -1.128377            0.874181            
H                    4.772388             -0.379349            0.412366            
H                    2.806626             -1.319292            -0.469476           
H                    2.611824             -2.040592            1.135772            
H                    2.484565             -0.284164            0.945786            
6

C                    3.011452             -1.181143            0.598397            
O                    4.394817             -1.128295            0.874212            
H                    4.772340             -0.379267            0.412398            
H                    2.806578             -1.319210            -0.469445           
H                    2.611776             -2.040510            1.135803            
H                    2.484613             -0.284246            0.945754            
6

C                    3.011404             -1.181061            0.598428            
O                    4.394769             -1.128214            0.874244            
H                    4.772292             -0.379185            0.412430            
H                    2.806530             -1.319128            -0.469413           
H                    2.611728             -2.040429            1.135835            
H                    2.484661             -0.284328            0.945722            
6

C                    3.011356             -1.180979            0.598460            
O                    4.394721             -1.128132            0.874276            
H                    4.772244             -0.379104            0.412461            
H                    2.806482             -1.319047            -0.469381           
H                    2.611680             -2.040347            1.135867            
H                    2.484709             -0.284409            0.945691            
6

C                    3.011308             -1.180897            0.598492            
O                    4.394673             -1.128050            0.874308            
H                    4.772196             -0.379022            0.412493            
H                    2.806434             -1.318965            -0.469350           
H                    2.611632             -2.040265            1.135898            
H                    2.484757             -0.284491            0.945659            
6

C                    3.011260             -1.180815            0.598523            
O                    4.394625             -1.127968            0.874339            
H                    4.772148             -0.378940            0.412525            
H                    2.806386             -1.318883            -0.469318           
H                    2.611584             -2.040183            1.135930            
H                    2.484805             -0.284573            0.945627            
6

C                    3.011211             -1.180734            0.598555            
O                    4.394577             -1.127886            0.874371            
H                    4.772100             -0.378858            0.412556            
H                    2.806338             -1.318801            -0.469286           
H                    2.611536             -2.040101            1.135962            
H                    2.484853             -0.284655            0.945596            
6

C                    3.011163             -1.180652            0.598587            
O                    4.394529             -1.127805            0.874403            
H                    4.772052             -0.378777            0.412588            
H                    2.806290             -1.318720            -0.469255           
H                    2.611488             -2.040020            1.135993            
H                    2.484901             -0.284736            0.945564            
6

C                    3.011115             -1.180570            0.598619            
O                    4.394481             -1.127723            0.874434            
H                    4.772004             -0.378695            0.412620            
H                    2.806242             -1.318638            -0.469223           
H                    2.611440             -2.039938            1.136025            
H                    2.484949             -0.284818            0.945532            
6

C                    3.011067             -1.180488            0.598650            
O                    4.394433             -1.127641            0.874466            
H                    4.771956             -0.378613            0.412651            
H                    2.806194             -1.318556            -0.469191           
H                    2.611392             -2.039856            1.136057            
H                    2.484997             -0.284900            0.945501            
