6

C                    3.010818             -1.180916            0.598394            
O                    4.395163             -1.128031            0.874405            
H                    4.772686             -0.379003            0.412591            
H                    2.805944             -1.318984            -0.469447           
H                    2.611142             -2.040284            1.135801            
H                    2.484267             -0.284510            0.945561            
6

C                    3.010916             -1.180912            0.598414            
O                    4.395065             -1.128035            0.874386            
H                    4.772588             -0.379007            0.412571            
H                    2.806042             -1.318980            -0.469428           
H                    2.611240             -2.040280            1.135820            
H                    2.484365             -0.284506            0.945581            
6

C                    3.011014             -1.180908            0.598433            
O                    4.394967             -1.128039            0.874366            
H                    4.772490             -0.379011            0.412552            
H                    2.806140             -1.318976            -0.469408           
H                    2.611338             -2.040276            1.135840            
H                    2.484463             -0.284502            0.945600            
6

C                    3.011112             -1.180905            0.598453            
O                    4.394869             -1.128043            0.874347            
H                    4.772392             -0.379014            0.412532            
H                    2.806238             -1.318972            -0.469389           
H                    2.611436             -2.040272            1.135859            
H                    2.484561             -0.284499            0.945620            
6

C                    3.011210             -1.180901            0.598472            
O                    4.394771             -1.128046            0.874327            
H                    4.772294             -0.379018            0.412513            
H                    2.806336             -1.318969            -0.469369           
H                    2.611534             -2.040269            1.135879            
H                    2.484659             -0.284495            0.945639            
6

C                    3.011308             -1.180897            0.598492            
O                    4.394673             -1.128050            0.874308            
H                    4.772196             -0.379022            0.412493            
H                    2.806434             -1.318965            -0.469350           
H                    2.611632             -2.040265            1.135898            
H                    2.484757             -0.284491            0.945659            
6

C                    3.011406             -1.180893            0.598511            
O                    4.394575             -1.128054            0.874288            
H                    4.772098             -0.379026            0.412474            
H                    2.806532             -1.318961            -0.469330           
H                    2.611730             -2.040261            1.135918            
H                    2.484855             -0.284487            0.945678            
6

C                    3.011504             -1.180890            0.598531            
O                    4.394477             -1.128058            0.874268            
H                    4.772000             -0.379029            0.412454            
H                    2.806630             -1.318957            -0.469311           
H                    2.611828             -2.040257            1.135937            
H                    2.484953             -0.284484            0.945698            
6

C                    3.011602             -1.180886            0.598550            
O                    4.394379             -1.128061            0.874249            
H                    4.771902             -0.379033            0.412434            
H                    2.806728             -1.318954            -0.469291           
H                    2.611926             -2.040254            1.135957            
H                    2.485051             -0.284480            0.945718            
6

C                    3.011700             -1.180882            0.598570            
O                    4.394281             -1.128065            0.874229            
H                    4.771804             -0.379037            0.412415            
H                    2.806826             -1.318950            -0.469272           
H                    2.612024             -2.040250            1.135977            
H                    2.485149             -0.284476            0.945737            
6

C                    3.011798             -1.180878            0.598590            
O                    4.394183             -1.128069            0.874210            
H                    4.771706             -0.379041            0.412395            
H                    2.806924             -1.318946            -0.469252           
H                    2.612122             -2.040246            1.135996            
H                    2.485247             -0.284472            0.945757            
