6

C                    3.011110             -1.181288            0.598733            
O                    4.394476             -1.128441            0.874549            
H                    4.772393             -0.378631            0.412252            
H                    2.806237             -1.319356            -0.469109           
H                    2.611435             -2.040656            1.136140            
H                    2.484560             -0.284882            0.945900            
6

C                    3.011150             -1.181210            0.598685            
O                    4.394515             -1.128363            0.874500            
H                    4.772354             -0.378709            0.412300            
H                    2.806277             -1.319278            -0.469157           
H                    2.611474             -2.040578            1.136091            
H                    2.484599             -0.284804            0.945852            
6

C                    3.011189             -1.181132            0.598636            
O                    4.394555             -1.128285            0.874452            
H                    4.772314             -0.378787            0.412348            
H                    2.806316             -1.319200            -0.469205           
H                    2.611514             -2.040500            1.136043            
H                    2.484639             -0.284726            0.945804            
6

C                    3.011229             -1.181054            0.598588            
O                    4.394594             -1.128206            0.874404            
H                    4.772275             -0.378865            0.412397            
H                    2.806355             -1.319121            -0.469253           
H                    2.611553             -2.040421            1.135995            
H                    2.484678             -0.284648            0.945755            
6

C                    3.011268             -1.180975            0.598540            
O                    4.394633             -1.128128            0.874356            
H                    4.772235             -0.378944            0.412445            
H                    2.806395             -1.319043            -0.469301           
H                    2.611593             -2.040343            1.135947            
H                    2.484718             -0.284569            0.945707            
6

C                    3.011308             -1.180897            0.598492            
O                    4.394673             -1.128050            0.874308            
H                    4.772196             -0.379022            0.412493            
H                    2.806434             -1.318965            -0.469350           
H                    2.611632             -2.040265            1.135898            
H                    2.484757             -0.284491            0.945659            
6

C                    3.011347             -1.180819            0.598444            
O                    4.394712             -1.127972            0.874259            
H                    4.772157             -0.379100            0.412541            
H                    2.806474             -1.318887            -0.469398           
H                    2.611671             -2.040187            1.135850            
H                    2.484797             -0.284413            0.945611            
6

C                    3.011386             -1.180741            0.598395            
O                    4.394752             -1.127894            0.874211            
H                    4.772117             -0.379178            0.412590            
H                    2.806513             -1.318808            -0.469446           
H                    2.611711             -2.040109            1.135802            
H                    2.484836             -0.284335            0.945562            
6

C                    3.011426             -1.180662            0.598347            
O                    4.394791             -1.127815            0.874163            
H                    4.772078             -0.379257            0.412638            
H                    2.806553             -1.318730            -0.469494           
H                    2.611750             -2.040030            1.135754            
H                    2.484875             -0.284256            0.945514            
6

C                    3.011465             -1.180584            0.598299            
O                    4.394831             -1.127737            0.874115            
H                    4.772038             -0.379335            0.412686            
H                    2.806592             -1.318652            -0.469543           
H                    2.611790             -2.039952            1.135705            
H                    2.484915             -0.284178            0.945466            
6

C                    3.011505             -1.180506            0.598251            
O                    4.394870             -1.127659            0.874066            
H                    4.771999             -0.379413            0.412734            
H                    2.806631             -1.318574            -0.469591           
H                    2.611829             -2.039874            1.135657            
H                    2.484954             -0.284100            0.945418            
