12

  C           8.014316            -5.941950            -6.617654            0             0.099454    [6[8[1]][1][1][1]]                                          
  O           8.114571            -4.769030            -7.390481            0            -0.597823    [8[6[1][1][1]][1]]                                          
  H           8.823657            -5.032683            -7.996795            0             0.402573    [1[8[6]]]                                                   
  H           8.737297            -5.974831            -5.831176            0             0.031932    [1[6[8][1][1]]]                                             
  H           7.019085            -6.186425            -6.241785            0             0.031932    [1[6[8][1][1]]]                                             
  H           8.308500            -6.885411            -7.121500            0             0.031932    [1[6[8][1][1]]]                                             
  C           9.154491            -5.845564            -10.477063           1             0.099454    [6[8[1]][1][1][1]]                                          
  O           7.756078            -6.012211            -10.442176           1            -0.597823    [8[6[1][1][1]][1]]                                          
  H           7.597626            -6.885404            -9.950277            1             0.402573    [1[8[6]]]                                                   
  H           9.469208            -5.933636            -9.461083            1             0.031932    [1[6[8][1][1]]]                                             
  H           9.699800            -6.617383            -11.095434           1             0.031932    [1[6[8][1][1]]]                                             
  H           9.348946            -4.905729            -10.969171           1             0.031932    [1[6[8][1][1]]]                                             
