12

  C          -0.612086             2.931693            -2.166030            0             0.099454    [6[8[1]][1][1][1]]                                          
  O          -1.917891             3.394526            -2.096503            0            -0.597823    [8[6[1][1][1]][1]]                                          
  H          -2.283379             3.362468            -1.200627            0             0.402573    [1[8[6]]]                                                   
  H          -0.456620             1.838111            -2.061463            0             0.031932    [1[6[8][1][1]]]                                             
  H          -0.083063             3.269453            -3.069938            0             0.031932    [1[6[8][1][1]]]                                             
  H          -0.006313             3.238354            -1.311755            0             0.031932    [1[6[8][1][1]]]                                             
  C           3.401683             4.641253            -4.329762            1             0.099454    [6[8[1]][1][1][1]]                                          
  O           4.757997             4.366267            -3.982675            1            -0.597823    [8[6[1][1][1]][1]]                                          
  H           4.675292             3.575779            -3.482763            1             0.402573    [1[8[6]]]                                                   
  H           3.087055             3.877497            -4.999281            1             0.031932    [1[6[8][1][1]]]                                             
  H           2.753994             4.612296            -3.402515            1             0.031932    [1[6[8][1][1]]]                                             
  H           3.272593             5.629788            -4.755901            1             0.031932    [1[6[8][1][1]]]                                             
