6

  C           10.008196            4.376804            -6.407265            0             0.089063    [6[8[1]][1][1][1]]                                          
  O           10.055552            4.368433            -5.012027            0            -0.604789    [8[6[1][1][1]][1]]                                          
  H           10.870353            4.851511            -4.725430            0             0.406250    [1[8[6]]]                                                   
  H           10.949198            4.676054            -6.831511            0             0.036492    [1[6[8][1][1]]]                                             
  H           9.591929             3.439033            -6.792692            0             0.036492    [1[6[8][1][1]]]                                             
  H           9.222293             5.097563            -6.667388            0             0.036492    [1[6[8][1][1]]]                                             
