12

  C           3.421083             7.210072             4.473973            0             0.099454    [6[8[1]][1][1][1]]                                          
  O           4.589934             8.015579             4.515994            0            -0.597823    [8[6[1][1][1]][1]]                                          
  H           4.448920             8.817756             4.027650            0             0.402573    [1[8[6]]]                                                   
  H           2.520643             7.794429             4.744338            0             0.031932    [1[6[8][1][1]]]                                             
  H           3.176166             6.680159             3.580771            0             0.031932    [1[6[8][1][1]]]                                             
  H           3.413371             6.403529             5.216325            0             0.031932    [1[6[8][1][1]]]                                             
  C          -0.241667             8.855129             6.504955            1             0.099454    [6[8[1]][1][1][1]]                                          
  O           0.003160             8.985826             5.138943            1            -0.597823    [8[6[1][1][1]][1]]                                          
  H          -0.815138             9.115915             4.700429            1             0.402573    [1[8[6]]]                                                   
  H          -1.161225             8.348675             6.738335            1             0.031932    [1[6[8][1][1]]]                                             
  H           0.546254             8.269358             7.009560            1             0.031932    [1[6[8][1][1]]]                                             
  H          -0.221386             9.829478             6.973121            1             0.031932    [1[6[8][1][1]]]                                             
