12

  C           5.434958             2.875792            -9.733265            0             0.099454    [6[8[1]][1][1][1]]                                          
  O           6.885886             2.877586            -9.509406            0            -0.597823    [8[6[1][1][1]][1]]                                          
  H           7.289825             2.013666            -9.590393            0             0.402573    [1[8[6]]]                                                   
  H           5.137906             3.799958            -10.234967           0             0.031932    [1[6[8][1][1]]]                                             
  H           5.202899             1.890700            -10.161595           0             0.031932    [1[6[8][1][1]]]                                             
  H           4.848795             2.960356            -8.769228            0             0.031932    [1[6[8][1][1]]]                                             
  C           6.138775             1.105410            -6.550989            1             0.099454    [6[8[1]][1][1][1]]                                          
  O           4.848622             0.624918            -6.810171            1            -0.597823    [8[6[1][1][1]][1]]                                          
  H           4.246071             1.217651            -6.369775            1             0.402573    [1[8[6]]]                                                   
  H           6.329343             0.969225            -5.450410            1             0.031932    [1[6[8][1][1]]]                                             
  H           6.799628             0.397577            -7.016951            1             0.031932    [1[6[8][1][1]]]                                             
  H           6.253958             2.163259            -6.958496            1             0.031932    [1[6[8][1][1]]]                                             
