12

  C           9.259421             10.062301            8.811759            0             0.099454    [6[8[1]][1][1][1]]                                          
  O           8.381720             10.141234            7.690191            0            -0.597823    [8[6[1][1][1]][1]]                                          
  H           7.835794             9.333430             7.697897            0             0.402573    [1[8[6]]]                                                   
  H           9.945951             9.205096             8.643888            0             0.031932    [1[6[8][1][1]]]                                             
  H           9.913457             10.956592            8.943988            0             0.031932    [1[6[8][1][1]]]                                             
  H           8.689230             10.048208            9.744641            0             0.031932    [1[6[8][1][1]]]                                             
  C           6.321475             9.201901             5.207391            1             0.099454    [6[8[1]][1][1][1]]                                          
  O           7.361675             9.472823             6.147094            1            -0.597823    [8[6[1][1][1]][1]]                                          
  H           8.090684             9.082047             5.642757            1             0.402573    [1[8[6]]]                                                   
  H           6.586048             8.325435             4.592221            1             0.031932    [1[6[8][1][1]]]                                             
  H           5.453284             8.830296             5.726521            1             0.031932    [1[6[8][1][1]]]                                             
  H           6.038527             9.983989             4.532099            1             0.031932    [1[6[8][1][1]]]                                             
