12

  C          -5.021241            -8.045832             2.494545            0             0.099454    [6[8[1]][1][1][1]]                                          
  O          -5.989247            -7.308026             3.203133            0            -0.597823    [8[6[1][1][1]][1]]                                          
  H          -6.772489            -7.218520             2.640288            0             0.402573    [1[8[6]]]                                                   
  H          -4.100609            -8.060883             3.101031            0             0.031932    [1[6[8][1][1]]]                                             
  H          -5.262900            -9.056602             2.291049            0             0.031932    [1[6[8][1][1]]]                                             
  H          -4.833772            -7.685138             1.454732            0             0.031932    [1[6[8][1][1]]]                                             
  C          -8.070406            -4.503512             0.294764            1             0.099454    [6[8[1]][1][1][1]]                                          
  O          -8.673569            -5.587107            -0.386314            1            -0.597823    [8[6[1][1][1]][1]]                                          
  H          -9.563237            -5.630320            -0.002070            1             0.402573    [1[8[6]]]                                                   
  H          -7.873048            -4.860077             1.333254            1             0.031932    [1[6[8][1][1]]]                                             
  H          -7.174208            -4.111271            -0.251197            1             0.031932    [1[6[8][1][1]]]                                             
  H          -8.697759            -3.599668             0.320643            1             0.031932    [1[6[8][1][1]]]                                             
