6

  C           11.461288           -3.231301            -2.499118            0             0.089063    [6[8[1]][1][1][1]]                                          
  O           10.237745           -2.585928            -2.646463            0            -0.604789    [8[6[1][1][1]][1]]                                          
  H           9.697166            -2.979877            -3.377355            0             0.406250    [1[8[6]]]                                                   
  H           12.087284           -2.778014            -1.724846            0             0.036492    [1[6[8][1][1]]]                                             
  H           11.428814           -4.273659            -2.233638            0             0.036492    [1[6[8][1][1]]]                                             
  H           11.984478           -3.100720            -3.392232            0             0.036492    [1[6[8][1][1]]]                                             
