12

  C           10.771608            5.192994            -3.288816            0             0.099454    [6[8[1]][1][1][1]]                                          
  O           9.362997             5.246545            -3.623818            0            -0.597823    [8[6[1][1][1]][1]]                                          
  H           8.855624             5.697290            -2.908676            0             0.402573    [1[8[6]]]                                                   
  H           10.908281            4.526235            -2.414384            0             0.031932    [1[6[8][1][1]]]                                             
  H           11.537811            4.895017            -4.018694            0             0.031932    [1[6[8][1][1]]]                                             
  H           11.083453            6.185757            -2.910122            0             0.031932    [1[6[8][1][1]]]                                             
  C           8.235340             8.821451            -2.245751            1             0.099454    [6[8[1]][1][1][1]]                                          
  O           8.494879             7.507418            -1.816378            1            -0.597823    [8[6[1][1][1]][1]]                                          
  H           9.430188             7.548700            -1.544468            1             0.402573    [1[8[6]]]                                                   
  H           8.709518             9.197691            -3.134328            1             0.031932    [1[6[8][1][1]]]                                             
  H           7.129239             8.888882            -2.486787            1             0.031932    [1[6[8][1][1]]]                                             
  H           8.454446             9.556951            -1.442571            1             0.031932    [1[6[8][1][1]]]                                             
