12

  C          -7.729322             4.427341             8.202547            0             0.099454    [6[8[1]][1][1][1]]                                          
  O          -7.019809             3.335802             7.681465            0            -0.597823    [8[6[1][1][1]][1]]                                          
  H          -7.560810             2.547871             7.585349            0             0.402573    [1[8[6]]]                                                   
  H          -8.077797             4.298807             9.202275            0             0.031932    [1[6[8][1][1]]]                                             
  H          -7.121937             5.329664             8.121222            0             0.031932    [1[6[8][1][1]]]                                             
  H          -8.610645             4.817844             7.611276            0             0.031932    [1[6[8][1][1]]]                                             
  C          -10.442349            0.332718             11.210148           1             0.099454    [6[8[1]][1][1][1]]                                          
  O          -11.387293            0.386545             12.249801           1            -0.597823    [8[6[1][1][1]][1]]                                          
  H          -11.053969           -0.094756             13.034461           1             0.402573    [1[8[6]]]                                                   
  H          -10.760894            0.795159             10.323181           1             0.031932    [1[6[8][1][1]]]                                             
  H          -9.503066             0.775429             11.469654           1             0.031932    [1[6[8][1][1]]]                                             
  H          -10.242103           -0.749359             11.023819           1             0.031932    [1[6[8][1][1]]]                                             
