12

  C          -5.830050            -10.619620            3.022717            0             0.099454    [6[8[1]][1][1][1]]                                          
  O          -4.448013            -10.380502            2.877255            0            -0.597823    [8[6[1][1][1]][1]]                                          
  H          -3.966628            -10.906813            3.561832            0             0.402573    [1[8[6]]]                                                   
  H          -6.509471            -10.105550            2.282956            0             0.031932    [1[6[8][1][1]]]                                             
  H          -6.010480            -11.695892            2.848057            0             0.031932    [1[6[8][1][1]]]                                             
  H          -6.112927            -10.425031            4.074593            0             0.031932    [1[6[8][1][1]]]                                             
  C          -4.903874            -9.442278            -0.677737            1             0.099454    [6[8[1]][1][1][1]]                                          
  O          -3.989815            -9.223129             0.357628            1            -0.597823    [8[6[1][1][1]][1]]                                          
  H          -4.262222            -9.680427             1.180958            1             0.402573    [1[8[6]]]                                                   
  H          -5.967884            -9.465559            -0.415941            1             0.031932    [1[6[8][1][1]]]                                             
  H          -4.794855            -8.731898            -1.421318            1             0.031932    [1[6[8][1][1]]]                                             
  H          -4.878456            -10.406002           -1.126017            1             0.031932    [1[6[8][1][1]]]                                             
