12

  C          -8.336969            -4.600054             6.961619            0             0.099454    [6[8[1]][1][1][1]]                                          
  O          -7.406997            -4.718792             5.976221            0            -0.597823    [8[6[1][1][1]][1]]                                          
  H          -6.557219            -5.068828             6.345814            0             0.402573    [1[8[6]]]                                                   
  H          -9.026821            -3.757067             6.800029            0             0.031932    [1[6[8][1][1]]]                                             
  H          -9.068774            -5.485411             6.969378            0             0.031932    [1[6[8][1][1]]]                                             
  H          -7.848887            -4.496328             7.950912            0             0.031932    [1[6[8][1][1]]]                                             
  C          -7.366661            -2.963687             2.761216            1             0.099454    [6[8[1]][1][1][1]]                                          
  O          -7.991004            -1.877299             2.184801            1            -0.597823    [8[6[1][1][1]][1]]                                          
  H          -8.630948            -1.490112             2.772157            1             0.402573    [1[8[6]]]                                                   
  H          -8.031490            -3.775481             2.924278            1             0.031932    [1[6[8][1][1]]]                                             
  H          -6.620792            -3.428823             2.136483            1             0.031932    [1[6[8][1][1]]]                                             
  H          -6.995310            -2.677469             3.725112            1             0.031932    [1[6[8][1][1]]]                                             
