12

  C          -1.001725            -9.641674            -5.075141            0             0.099454    [6[8[1]][1][1][1]]                                          
  O          -1.080321            -11.053985           -4.800357            0            -0.597823    [8[6[1][1][1]][1]]                                          
  H          -0.733545            -11.033127           -3.907484            0             0.402573    [1[8[6]]]                                                   
  H          -1.773834            -9.130125            -4.517852            0             0.031932    [1[6[8][1][1]]]                                             
  H          -0.063907            -9.121528            -4.738339            0             0.031932    [1[6[8][1][1]]]                                             
  H          -1.159688            -9.406464            -6.166276            0             0.031932    [1[6[8][1][1]]]                                             
  C          -4.193454            -11.296787           -3.984335            1             0.099454    [6[8[1]][1][1][1]]                                          
  O          -3.721456            -11.740180           -5.284262            1            -0.597823    [8[6[1][1][1]][1]]                                          
  H          -2.770841            -11.555167           -5.343181            1             0.402573    [1[8[6]]]                                                   
  H          -3.546336            -11.650999           -3.139602            1             0.031932    [1[6[8][1][1]]]                                             
  H          -4.193360            -10.192244           -3.849085            1             0.031932    [1[6[8][1][1]]]                                             
  H          -5.156689            -11.711549           -3.758057            1             0.031932    [1[6[8][1][1]]]                                             
