12

  C          -1.179900            -8.638037            -6.948018            0             0.099454    [6[8[1]][1][1][1]]                                          
  O          -1.535437            -7.599694            -7.826611            0            -0.597823    [8[6[1][1][1]][1]]                                          
  H          -1.999492            -7.996814            -8.546439            0             0.402573    [1[8[6]]]                                                   
  H          -1.140443            -8.346784            -5.893805            0             0.031932    [1[6[8][1][1]]]                                             
  H          -1.993029            -9.398908            -7.027883            0             0.031932    [1[6[8][1][1]]]                                             
  H          -0.248926            -9.165004            -7.282007            0             0.031932    [1[6[8][1][1]]]                                             
  C          -4.415804            -6.305064            -9.010949            1             0.099454    [6[8[1]][1][1][1]]                                          
  O          -3.554945            -7.024887            -9.821782            1            -0.597823    [8[6[1][1][1]][1]]                                          
  H          -3.705395            -6.707970            -10.700897           1             0.402573    [1[8[6]]]                                                   
  H          -4.060751            -5.249625            -8.799378            1             0.031932    [1[6[8][1][1]]]                                             
  H          -5.379806            -6.265267            -9.537826            1             0.031932    [1[6[8][1][1]]]                                             
  H          -4.717809            -6.763836            -8.096143            1             0.031932    [1[6[8][1][1]]]                                             
