12

  C          -10.253278            2.281178            -10.866713           0             0.099454    [6[8[1]][1][1][1]]                                          
  O          -10.765935            1.255526            -10.066762           0            -0.597823    [8[6[1][1][1]][1]]                                          
  H          -10.405657            0.438513            -10.208040           0             0.402573    [1[8[6]]]                                                   
  H          -10.864081            2.419809            -11.732097           0             0.031932    [1[6[8][1][1]]]                                             
  H          -10.316140            3.216251            -10.352441           0             0.031932    [1[6[8][1][1]]]                                             
  H          -9.188772             2.082964            -11.156149           0             0.031932    [1[6[8][1][1]]]                                             
  C          -8.410225            -0.821002            -8.789456            1             0.099454    [6[8[1]][1][1][1]]                                          
  O          -8.113368            -0.162009            -9.990376            1            -0.597823    [8[6[1][1][1]][1]]                                          
  H          -7.278055             0.309001            -9.897010            1             0.402573    [1[8[6]]]                                                   
  H          -8.741089            -0.008371            -8.039512            1             0.031932    [1[6[8][1][1]]]                                             
  H          -9.202039            -1.532107            -8.940040            1             0.031932    [1[6[8][1][1]]]                                             
  H          -7.582550            -1.437232            -8.412476            1             0.031932    [1[6[8][1][1]]]                                             
