12

  C           1.531525             0.033829            -4.259971            0             0.099454    [6[8[1]][1][1][1]]                                          
  O           2.307821             0.669970            -3.214208            0            -0.597823    [8[6[1][1][1]][1]]                                          
  H           1.640530             1.240165            -2.764406            0             0.402573    [1[8[6]]]                                                   
  H           1.314484             0.738078            -5.066417            0             0.031932    [1[6[8][1][1]]]                                             
  H           2.103369            -0.772283            -4.715026            0             0.031932    [1[6[8][1][1]]]                                             
  H           0.554897            -0.284237            -3.949074            0             0.031932    [1[6[8][1][1]]]                                             
  C           5.414360             2.312318            -2.568402            1             0.099454    [6[8[1]][1][1][1]]                                          
  O           4.625519             1.914450            -1.504518            1            -0.597823    [8[6[1][1][1]][1]]                                          
  H           3.851987             1.466490            -1.876465            1             0.402573    [1[8[6]]]                                                   
  H           4.913684             2.890442            -3.305051            1             0.031932    [1[6[8][1][1]]]                                             
  H           6.162484             2.892581            -2.213522            1             0.031932    [1[6[8][1][1]]]                                             
  H           5.852648             1.497806            -3.120697            1             0.031932    [1[6[8][1][1]]]                                             
