12

  C           1.478229             4.723334             1.853045            0             0.099454    [6[8[1]][1][1][1]]                                          
  O           2.137860             3.740740             0.987973            0            -0.597823    [8[6[1][1][1]][1]]                                          
  H           1.603205             2.908610             1.102617            0             0.402573    [1[8[6]]]                                                   
  H           2.125817             5.126152             2.564378            0             0.031932    [1[6[8][1][1]]]                                             
  H           1.034596             5.532654             1.227298            0             0.031932    [1[6[8][1][1]]]                                             
  H           0.771103             4.272160             2.550989            0             0.031932    [1[6[8][1][1]]]                                             
  C          -2.197106             2.999726             0.244676            1             0.099454    [6[8[1]][1][1][1]]                                          
  O          -2.077694             3.934402            -0.773243            1            -0.597823    [8[6[1][1][1]][1]]                                          
  H          -1.174624             4.272420            -0.698068            1             0.402573    [1[8[6]]]                                                   
  H          -2.433682             3.459096             1.167180            1             0.031932    [1[6[8][1][1]]]                                             
  H          -2.846017             2.155096             0.044249            1             0.031932    [1[6[8][1][1]]]                                             
  H          -1.193848             2.548132             0.440142            1             0.031932    [1[6[8][1][1]]]                                             
