12

  C           3.233414            -3.571402             3.480505            0             0.099454    [6[8[1]][1][1][1]]                                          
  O           2.255676            -2.570167             3.219103            0            -0.597823    [8[6[1][1][1]][1]]                                          
  H           1.566001            -2.787145             3.844910            0             0.402573    [1[8[6]]]                                                   
  H           2.766447            -4.558397             3.518261            0             0.031932    [1[6[8][1][1]]]                                             
  H           4.083400            -3.498807             2.869667            0             0.031932    [1[6[8][1][1]]]                                             
  H           3.649298            -3.340378             4.517966            0             0.031932    [1[6[8][1][1]]]                                             
  C           1.148353            -5.134750             1.359061            1             0.099454    [6[8[1]][1][1][1]]                                          
  O           0.677754            -3.844119             1.665310            1            -0.597823    [8[6[1][1][1]][1]]                                          
  H           1.365600            -3.185171             1.347727            1             0.402573    [1[8[6]]]                                                   
  H           2.072571            -5.434069             1.815294            1             0.031932    [1[6[8][1][1]]]                                             
  H           0.388310            -5.865048             1.713499            1             0.031932    [1[6[8][1][1]]]                                             
  H           1.217598            -5.345474             0.267756            1             0.031932    [1[6[8][1][1]]]                                             
