12

  C          -5.018804            -11.394211            4.335101            0             0.099454    [6[8[1]][1][1][1]]                                          
  O          -4.125954            -10.858784            5.383765            0            -0.597823    [8[6[1][1][1]][1]]                                          
  H          -3.702437            -10.083851            5.035189            0             0.402573    [1[8[6]]]                                                   
  H          -5.527582            -10.505104            3.828122            0             0.031932    [1[6[8][1][1]]]                                             
  H          -4.441818            -11.900742            3.519998            0             0.031932    [1[6[8][1][1]]]                                             
  H          -5.719270            -12.198359            4.600835            0             0.031932    [1[6[8][1][1]]]                                             
  C          -2.564663            -10.829491            0.819036            1             0.099454    [6[8[1]][1][1][1]]                                          
  O          -1.332082            -11.025152            1.444712            1            -0.597823    [8[6[1][1][1]][1]]                                          
  H          -1.579110            -11.609815            2.161669            1             0.402573    [1[8[6]]]                                                   
  H          -2.334350            -10.176657           -0.055430            1             0.031932    [1[6[8][1][1]]]                                             
  H          -2.996839            -11.752730            0.453297            1             0.031932    [1[6[8][1][1]]]                                             
  H          -3.253794            -10.236978            1.399588            1             0.031932    [1[6[8][1][1]]]                                             
