12

  C          -9.214157            -0.697725            -0.310024            0             0.099454    [6[8[1]][1][1][1]]                                          
  O          -8.796968            -0.094356             0.899646            0            -0.597823    [8[6[1][1][1]][1]]                                          
  H          -8.301824             0.652088             0.736307            0             0.402573    [1[8[6]]]                                                   
  H          -9.554524            -1.715221            -0.260434            0             0.031932    [1[6[8][1][1]]]                                             
  H          -10.050928           -0.149997            -0.768847            0             0.031932    [1[6[8][1][1]]]                                             
  H          -8.389909            -0.712610            -0.985198            0             0.031932    [1[6[8][1][1]]]                                             
  C          -7.817568            -1.115206             3.700013            1             0.099454    [6[8[1]][1][1][1]]                                          
  O          -9.136573            -1.456751             3.302146            1            -0.597823    [8[6[1][1][1]][1]]                                          
  H          -9.190506            -1.221461             2.379314            1             0.402573    [1[8[6]]]                                                   
  H          -7.877102            -0.056700             4.089856            1             0.031932    [1[6[8][1][1]]]                                             
  H          -7.442192            -1.784982             4.507728            1             0.031932    [1[6[8][1][1]]]                                             
  H          -7.121682            -1.192294             2.872349            1             0.031932    [1[6[8][1][1]]]                                             
