12

  C           9.259421             10.062301            8.811759            0             0.099454    [6[8[1]][1][1][1]]                                          
  O           8.381720             10.141234            7.690191            0            -0.597823    [8[6[1][1][1]][1]]                                          
  H           7.835794             9.333430             7.697897            0             0.402573    [1[8[6]]]                                                   
  H           9.945951             9.205096             8.643888            0             0.031932    [1[6[8][1][1]]]                                             
  H           9.913457             10.956592            8.943988            0             0.031932    [1[6[8][1][1]]]                                             
  H           8.689230             10.048208            9.744641            0             0.031932    [1[6[8][1][1]]]                                             
  C           9.630681             10.313985            2.765223            1             0.099454    [6[8[1]][1][1][1]]                                          
  O           8.445673             10.494432            3.492279            1            -0.597823    [8[6[1][1][1]][1]]                                          
  H           8.506307             10.462638            4.457554            1             0.402573    [1[8[6]]]                                                   
  H           10.347231            11.146109            2.830860            1             0.031932    [1[6[8][1][1]]]                                             
  H           10.175214            9.368767             2.986989            1             0.031932    [1[6[8][1][1]]]                                             
  H           9.343847             10.194786            1.691725            1             0.031932    [1[6[8][1][1]]]                                             
