12

  C           7.964297            -1.208832            -5.684021            0             0.099454    [6[8[1]][1][1][1]]                                          
  O           7.279736             0.002685            -5.628934            0            -0.597823    [8[6[1][1][1]][1]]                                          
  H           7.762700             0.652931            -6.164516            0             0.402573    [1[8[6]]]                                                   
  H           7.817346            -1.887054            -4.851964            0             0.031932    [1[6[8][1][1]]]                                             
  H           7.703481            -1.799210            -6.550149            0             0.031932    [1[6[8][1][1]]]                                             
  H           9.066567            -1.048469            -5.764761            0             0.031932    [1[6[8][1][1]]]                                             
  C           7.185362             3.446770            -6.598216            1             0.099454    [6[8[1]][1][1][1]]                                          
  O           7.009860             2.183040            -7.240658            1            -0.597823    [8[6[1][1][1]][1]]                                          
  H           6.743349             2.394639            -8.134985            1             0.402573    [1[8[6]]]                                                   
  H           7.430673             3.367316            -5.553420            1             0.031932    [1[6[8][1][1]]]                                             
  H           7.995459             4.065174            -7.037358            1             0.031932    [1[6[8][1][1]]]                                             
  H           6.205640             4.036175            -6.768280            1             0.031932    [1[6[8][1][1]]]                                             
