12

  C          -1.523092            -3.085054            -4.626806            0             0.099454    [6[8[1]][1][1][1]]                                          
  O          -0.408437            -2.272487            -4.951602            0            -0.597823    [8[6[1][1][1]][1]]                                          
  H          -0.333065            -2.187968            -5.897498            0             0.402573    [1[8[6]]]                                                   
  H          -1.220030            -4.200989            -4.574410            0             0.031932    [1[6[8][1][1]]]                                             
  H          -1.929081            -2.720365            -3.656074            0             0.031932    [1[6[8][1][1]]]                                             
  H          -2.337389            -2.885458            -5.353517            0             0.031932    [1[6[8][1][1]]]                                             
  C           1.869562            -4.630558            -4.013611            1             0.099454    [6[8[1]][1][1][1]]                                          
  O           1.998488            -3.268372            -4.385028            1            -0.597823    [8[6[1][1][1]][1]]                                          
  H           1.149634            -2.862455            -4.349117            1             0.402573    [1[8[6]]]                                                   
  H           2.789057            -5.156412            -4.388063            1             0.031932    [1[6[8][1][1]]]                                             
  H           1.701036            -4.752790            -2.961769            1             0.031932    [1[6[8][1][1]]]                                             
  H           1.020098            -5.155330            -4.497702            1             0.031932    [1[6[8][1][1]]]                                             
