12

  C           1.360282            -4.777872            -0.154041            0             0.099454    [6[8[1]][1][1][1]]                                          
  O           0.112124            -4.454516             0.466890            0            -0.597823    [8[6[1][1][1]][1]]                                          
  H           0.255263            -3.645348             0.929075            0             0.402573    [1[8[6]]]                                                   
  H           1.579164            -4.006664            -0.829384            0             0.031932    [1[6[8][1][1]]]                                             
  H           2.089112            -4.804114             0.602860            0             0.031932    [1[6[8][1][1]]]                                             
  H           1.466500            -5.741228            -0.685839            0             0.031932    [1[6[8][1][1]]]                                             
  C           3.003348            -9.879863             1.825211            1             0.099454    [6[8[1]][1][1][1]]                                          
  O           3.065224            -11.211353            1.365067            1            -0.597823    [8[6[1][1][1]][1]]                                          
  H           2.954183            -11.783072            2.133000            1             0.402573    [1[8[6]]]                                                   
  H           2.000786            -9.611904             2.186784            1             0.031932    [1[6[8][1][1]]]                                             
  H           3.662918            -9.671749             2.682948            1             0.031932    [1[6[8][1][1]]]                                             
  H           3.254311            -9.203607             1.003556            1             0.031932    [1[6[8][1][1]]]                                             
