12

  C           6.919625             2.237632             2.945838            0             0.099454    [6[8[1]][1][1][1]]                                          
  O           7.105568             3.614791             3.004067            0            -0.597823    [8[6[1][1][1]][1]]                                          
  H           7.927648             3.903414             2.617584            0             0.402573    [1[8[6]]]                                                   
  H           7.422164             1.719098             3.729250            0             0.031932    [1[6[8][1][1]]]                                             
  H           5.841692             1.966989             3.041488            0             0.031932    [1[6[8][1][1]]]                                             
  H           7.318918             1.785904             1.953686            0             0.031932    [1[6[8][1][1]]]                                             
  C           3.339506            -0.048470             6.275912            1             0.099454    [6[8[1]][1][1][1]]                                          
  O           3.366161             0.429073             4.976725            1            -0.597823    [8[6[1][1][1]][1]]                                          
  H           3.378025             1.429729             4.990858            1             0.402573    [1[8[6]]]                                                   
  H           4.290189            -0.002235             6.806620            1             0.031932    [1[6[8][1][1]]]                                             
  H           2.625669             0.565007             6.872106            1             0.031932    [1[6[8][1][1]]]                                             
  H           2.973593            -1.060330             6.342800            1             0.031932    [1[6[8][1][1]]]                                             
