12

  C          -3.990557             2.539850            -3.509310            0             0.099454    [6[8[1]][1][1][1]]                                          
  O          -2.734901             3.263843            -3.827585            0            -0.597823    [8[6[1][1][1]][1]]                                          
  H          -2.021103             2.943012            -3.267228            0             0.402573    [1[8[6]]]                                                   
  H          -4.692561             2.625681            -4.328184            0             0.031932    [1[6[8][1][1]]]                                             
  H          -3.867786             1.490067            -3.387130            0             0.031932    [1[6[8][1][1]]]                                             
  H          -4.497912             2.792353            -2.572181            0             0.031932    [1[6[8][1][1]]]                                             
  C          -3.821677             6.233248            -5.358591            1             0.099454    [6[8[1]][1][1][1]]                                          
  O          -2.479751             6.079981            -5.019133            1            -0.597823    [8[6[1][1][1]][1]]                                          
  H          -2.364337             5.272735            -4.519408            1             0.402573    [1[8[6]]]                                                   
  H          -4.066445             5.743584            -6.270756            1             0.031932    [1[6[8][1][1]]]                                             
  H          -4.452980             5.822695            -4.568064            1             0.031932    [1[6[8][1][1]]]                                             
  H          -3.995111             7.286955            -5.595354            1             0.031932    [1[6[8][1][1]]]                                             
