12

  C          -4.463582            -1.354472             0.559463            0             0.099454    [6[8[1]][1][1][1]]                                          
  O          -5.340438            -2.213762            -0.128602            0            -0.597823    [8[6[1][1][1]][1]]                                          
  H          -6.211150            -1.951602            -0.000589            0             0.402573    [1[8[6]]]                                                   
  H          -4.627158            -1.465617             1.596524            0             0.031932    [1[6[8][1][1]]]                                             
  H          -3.468846            -1.728514             0.454134            0             0.031932    [1[6[8][1][1]]]                                             
  H          -4.436178            -0.307758             0.291256            0             0.031932    [1[6[8][1][1]]]                                             
  C          -3.442066            -5.748472            -1.650043            1             0.099454    [6[8[1]][1][1][1]]                                          
  O          -4.309298            -6.326566            -2.533591            1            -0.597823    [8[6[1][1][1]][1]]                                          
  H          -3.866864            -7.032628            -2.977934            1             0.402573    [1[8[6]]]                                                   
  H          -3.811814            -4.730813            -1.380673            1             0.031932    [1[6[8][1][1]]]                                             
  H          -3.443193            -6.277069            -0.667152            1             0.031932    [1[6[8][1][1]]]                                             
  H          -2.442657            -5.646653            -2.059387            1             0.031932    [1[6[8][1][1]]]                                             
