12

  C           9.028161            -7.584521             4.100614            0             0.099454    [6[8[1]][1][1][1]]                                          
  O           8.192791            -6.828802             5.014434            0            -0.597823    [8[6[1][1][1]][1]]                                          
  H           7.594326            -6.269406             4.519792            0             0.402573    [1[8[6]]]                                                   
  H           8.513725            -7.939866             3.227101            0             0.031932    [1[6[8][1][1]]]                                             
  H           9.834166            -6.927564             3.751375            0             0.031932    [1[6[8][1][1]]]                                             
  H           9.510038            -8.408056             4.560258            0             0.031932    [1[6[8][1][1]]]                                             
  C           10.504551           -11.180506           -0.179575            1             0.099454    [6[8[1]][1][1][1]]                                          
  O           9.425508            -11.131380           -1.103996            1            -0.597823    [8[6[1][1][1]][1]]                                          
  H           8.716325            -10.826452           -0.523253            1             0.402573    [1[8[6]]]                                                   
  H           10.316046           -11.977736            0.589473            1             0.031932    [1[6[8][1][1]]]                                             
  H           11.376198           -11.512109           -0.812800            1             0.031932    [1[6[8][1][1]]]                                             
  H           10.759810           -10.249666            0.345818            1             0.031932    [1[6[8][1][1]]]                                             
