12

  C           4.116040             3.646797             5.150770            0             0.099454    [6[8[1]][1][1][1]]                                          
  O           5.314399             3.405780             4.517782            0            -0.597823    [8[6[1][1][1]][1]]                                          
  H           5.522391             4.067591             3.865315            0             0.402573    [1[8[6]]]                                                   
  H           4.059715             4.503963             5.810762            0             0.031932    [1[6[8][1][1]]]                                             
  H           3.306977             3.937152             4.436309            0             0.031932    [1[6[8][1][1]]]                                             
  H           3.812589             2.736741             5.676938            0             0.031932    [1[6[8][1][1]]]                                             
  C           9.730168             4.641227             4.988707            1             0.099454    [6[8[1]][1][1][1]]                                          
  O           8.336854             4.767792             4.913868            1            -0.597823    [8[6[1][1][1]][1]]                                          
  H           7.988802             3.956070             5.277866            1             0.402573    [1[8[6]]]                                                   
  H           10.256681            5.459692             4.472310            1             0.031932    [1[6[8][1][1]]]                                             
  H           10.125117            4.603005             5.973250            1             0.031932    [1[6[8][1][1]]]                                             
  H           10.095808            3.771040             4.469233            1             0.031932    [1[6[8][1][1]]]                                             
