12

  C           6.919625             2.237632             2.945838            0             0.099454    [6[8[1]][1][1][1]]                                          
  O           7.105568             3.614791             3.004067            0            -0.597823    [8[6[1][1][1]][1]]                                          
  H           7.927648             3.903414             2.617584            0             0.402573    [1[8[6]]]                                                   
  H           7.422164             1.719098             3.729250            0             0.031932    [1[6[8][1][1]]]                                             
  H           5.841692             1.966989             3.041488            0             0.031932    [1[6[8][1][1]]]                                             
  H           7.318918             1.785904             1.953686            0             0.031932    [1[6[8][1][1]]]                                             
  C           6.485865             6.830318             0.457606            1             0.099454    [6[8[1]][1][1][1]]                                          
  O           6.958456             6.355031            -0.794069            1            -0.597823    [8[6[1][1][1]][1]]                                          
  H           7.907226             6.370384            -0.741623            1             0.402573    [1[8[6]]]                                                   
  H           6.882538             7.854793             0.749982            1             0.031932    [1[6[8][1][1]]]                                             
  H           5.409756             6.912721             0.368214            1             0.031932    [1[6[8][1][1]]]                                             
  H           6.865832             6.186334             1.267891            1             0.031932    [1[6[8][1][1]]]                                             
