12

  C          -3.115504             7.001241             2.301586            0             0.099454    [6[8[1]][1][1][1]]                                          
  O          -3.053146             6.462424             0.964257            0            -0.597823    [8[6[1][1][1]][1]]                                          
  H          -2.899011             7.214064             0.348305            0             0.402573    [1[8[6]]]                                                   
  H          -3.798502             7.837995             2.319530            0             0.031932    [1[6[8][1][1]]]                                             
  H          -3.430143             6.398298             3.171585            0             0.031932    [1[6[8][1][1]]]                                             
  H          -2.108414             7.378747             2.531896            0             0.031932    [1[6[8][1][1]]]                                             
  C          -5.233125             4.057205             1.120172            1             0.099454    [6[8[1]][1][1][1]]                                          
  O          -4.049725             4.015248             0.367915            1            -0.597823    [8[6[1][1][1]][1]]                                          
  H          -3.640704             4.844211             0.494158            1             0.402573    [1[8[6]]]                                                   
  H          -5.756371             5.064788             1.065926            1             0.031932    [1[6[8][1][1]]]                                             
  H          -5.982062             3.392982             0.703762            1             0.031932    [1[6[8][1][1]]]                                             
  H          -5.052303             3.785532             2.221070            1             0.031932    [1[6[8][1][1]]]                                             
