6

  C          -10.665111            10.187866            6.672238            0             0.089063    [6[8[1]][1][1][1]]                                          
  O          -10.550337            8.820377             6.960867            0            -0.604789    [8[6[1][1][1]][1]]                                          
  H          -10.798494            8.592864             7.847722            0             0.406250    [1[8[6]]]                                                   
  H          -11.674265            10.557767            6.506419            0             0.036492    [1[6[8][1][1]]]                                             
  H          -10.396751            10.733746            7.606618            0             0.036492    [1[6[8][1][1]]]                                             
  H          -9.982886             10.637134            5.916869            0             0.036492    [1[6[8][1][1]]]                                             
