12

  C          -3.085407             1.212228            -6.857028            0             0.099454    [6[8[1]][1][1][1]]                                          
  O          -4.014511             0.679533            -7.754818            0            -0.597823    [8[6[1][1][1]][1]]                                          
  H          -3.617017            -0.153410            -8.081807            0             0.402573    [1[8[6]]]                                                   
  H          -3.475457             2.195119            -6.416982            0             0.031932    [1[6[8][1][1]]]                                             
  H          -2.699295             0.539996            -6.108891            0             0.031932    [1[6[8][1][1]]]                                             
  H          -2.225274             1.472159            -7.430988            0             0.031932    [1[6[8][1][1]]]                                             
  C          -8.405446            -1.164534            -6.472266            1             0.099454    [6[8[1]][1][1][1]]                                          
  O          -7.820639            -0.013318            -6.108286            1            -0.597823    [8[6[1][1][1]][1]]                                          
  H          -8.464241             0.721530            -6.265610            1             0.402573    [1[8[6]]]                                                   
  H          -8.228587            -1.262033            -7.582282            1             0.031932    [1[6[8][1][1]]]                                             
  H          -7.922289            -2.024106            -5.819108            1             0.031932    [1[6[8][1][1]]]                                             
  H          -9.511411            -1.107295            -6.351230            1             0.031932    [1[6[8][1][1]]]                                             
