12

  C          -4.571858            -8.509217             7.080362            0             0.099454    [6[8[1]][1][1][1]]                                          
  O          -3.583468            -7.449682             7.394431            0            -0.597823    [8[6[1][1][1]][1]]                                          
  H          -3.572475            -6.902586             6.640899            0             0.402573    [1[8[6]]]                                                   
  H          -4.180799            -9.176255             6.298429            0             0.031932    [1[6[8][1][1]]]                                             
  H          -4.673121            -9.129860             7.950470            0             0.031932    [1[6[8][1][1]]]                                             
  H          -5.476760            -8.065264             6.898514            0             0.031932    [1[6[8][1][1]]]                                             
  C          -9.148478            -7.699592             3.750944            1             0.099454    [6[8[1]][1][1][1]]                                          
  O          -8.768307            -7.188692             2.457517            1            -0.597823    [8[6[1][1][1]][1]]                                          
  H          -9.539388            -7.228703             1.924182            1             0.402573    [1[8[6]]]                                                   
  H          -9.498770            -8.728555             3.697572            1             0.031932    [1[6[8][1][1]]]                                             
  H          -8.469807            -7.543474             4.609705            1             0.031932    [1[6[8][1][1]]]                                             
  H          -10.003615           -7.123015             4.042330            1             0.031932    [1[6[8][1][1]]]                                             
