12

  C          -7.942409            -2.379003            -9.459658            0             0.099454    [6[8[1]][1][1][1]]                                          
  O          -7.867683            -3.795945            -9.391160            0            -0.597823    [8[6[1][1][1]][1]]                                          
  H          -8.719740            -4.186714            -9.465420            0             0.402573    [1[8[6]]]                                                   
  H          -7.748901            -1.924920            -8.467208            0             0.031932    [1[6[8][1][1]]]                                             
  H          -7.233413            -1.909138            -10.170256           0             0.031932    [1[6[8][1][1]]]                                             
  H          -8.967834            -2.145940            -9.738359            0             0.031932    [1[6[8][1][1]]]                                             
  C          -7.949055            -9.171305            -6.566835            1             0.099454    [6[8[1]][1][1][1]]                                          
  O          -8.982075            -8.273082            -6.852369            1            -0.597823    [8[6[1][1][1]][1]]                                          
  H          -8.439640            -7.513511            -7.058999            1             0.402573    [1[8[6]]]                                                   
  H          -7.037029            -9.018700            -7.166905            1             0.031932    [1[6[8][1][1]]]                                             
  H          -7.643131            -8.978097            -5.558532            1             0.031932    [1[6[8][1][1]]]                                             
  H          -8.170766            -10.203733           -6.710026            1             0.031932    [1[6[8][1][1]]]                                             
