12

  C          -2.126665            -0.208685             0.998271            0             0.099454    [6[8[1]][1][1][1]]                                          
  O          -1.430245            -0.154038             2.216547            0            -0.597823    [8[6[1][1][1]][1]]                                          
  H          -0.941628            -0.970664             2.317989            0             0.402573    [1[8[6]]]                                                   
  H          -2.670236            -1.145597             0.868063            0             0.031932    [1[6[8][1][1]]]                                             
  H          -2.929450             0.476689             0.924558            0             0.031932    [1[6[8][1][1]]]                                             
  H          -1.504944            -0.030401             0.068087            0             0.031932    [1[6[8][1][1]]]                                             
  C           0.024962             3.279338             2.219928            1             0.099454    [6[8[1]][1][1][1]]                                          
  O           0.698008             2.095826             1.788715            1            -0.597823    [8[6[1][1][1]][1]]                                          
  H           0.289781             1.322125             2.213121            1             0.402573    [1[8[6]]]                                                   
  H           0.363567             4.220912             1.740841            1             0.031932    [1[6[8][1][1]]]                                             
  H          -1.016811             3.237245             1.928872            1             0.031932    [1[6[8][1][1]]]                                             
  H           0.064650             3.499238             3.329107            1             0.031932    [1[6[8][1][1]]]                                             
