12

  C          -10.012217           -3.260761             3.612046            0             0.099454    [6[8[1]][1][1][1]]                                          
  O          -9.049971            -2.258443             3.290814            0            -0.597823    [8[6[1][1][1]][1]]                                          
  H          -9.544630            -1.524157             2.939896            0             0.402573    [1[8[6]]]                                                   
  H          -10.761917           -3.336044             2.835439            0             0.031932    [1[6[8][1][1]]]                                             
  H          -9.516522            -4.196883             3.682263            0             0.031932    [1[6[8][1][1]]]                                             
  H          -10.539423           -3.049926             4.482328            0             0.031932    [1[6[8][1][1]]]                                             
  C          -6.266477            -4.168455             2.455603            1             0.099454    [6[8[1]][1][1][1]]                                          
  O          -7.175860            -4.854637             3.321808            1            -0.597823    [8[6[1][1][1]][1]]                                          
  H          -7.764477            -4.120895             3.614753            1             0.402573    [1[8[6]]]                                                   
  H          -5.463502            -3.663733             3.000096            1             0.031932    [1[6[8][1][1]]]                                             
  H          -5.628157            -4.916968             1.894217            1             0.031932    [1[6[8][1][1]]]                                             
  H          -6.708523            -3.465401             1.673452            1             0.031932    [1[6[8][1][1]]]                                             
