12

  C           7.285926             0.821066             2.316241            0             0.099454    [6[8[1]][1][1][1]]                                          
  O           7.532912             0.471736             1.007627            0            -0.597823    [8[6[1][1][1]][1]]                                          
  H           8.045949            -0.406475             0.930814            0             0.402573    [1[8[6]]]                                                   
  H           7.486048            -0.087081             3.004934            0             0.031932    [1[6[8][1][1]]]                                             
  H           7.841240             1.695538             2.765298            0             0.031932    [1[6[8][1][1]]]                                             
  H           6.188296             0.937388             2.320612            0             0.031932    [1[6[8][1][1]]]                                             
  C           3.721256             2.865454             0.278842            1             0.099454    [6[8[1]][1][1][1]]                                          
  O           3.810652             4.224513             0.718855            1            -0.597823    [8[6[1][1][1]][1]]                                          
  H           3.847158             4.251311             1.654711            1             0.402573    [1[8[6]]]                                                   
  H           4.630489             2.337793             0.330650            1             0.031932    [1[6[8][1][1]]]                                             
  H           3.118835             2.213713             0.975832            1             0.031932    [1[6[8][1][1]]]                                             
  H           3.309772             2.784025            -0.718189            1             0.031932    [1[6[8][1][1]]]                                             
