12

  C          -7.703937             4.864431             7.544231            0             0.099454    [6[8[1]][1][1][1]]                                          
  O          -8.044865             6.226566             7.754114            0            -0.597823    [8[6[1][1][1]][1]]                                          
  H          -8.552644             6.657544             7.051836            0             0.402573    [1[8[6]]]                                                   
  H          -8.567473             4.275343             7.272627            0             0.031932    [1[6[8][1][1]]]                                             
  H          -6.941389             4.675493             6.753926            0             0.031932    [1[6[8][1][1]]]                                             
  H          -7.290078             4.411499             8.488377            0             0.031932    [1[6[8][1][1]]]                                             
  C          -6.154052             3.958405             3.975718            1             0.099454    [6[8[1]][1][1][1]]                                          
  O          -5.344385             3.991416             5.166101            1            -0.597823    [8[6[1][1][1]][1]]                                          
  H          -4.464513             3.618490             4.895154            1             0.402573    [1[8[6]]]                                                   
  H          -5.814235             4.644346             3.153076            1             0.031932    [1[6[8][1][1]]]                                             
  H          -6.268747             2.967762             3.478861            1             0.031932    [1[6[8][1][1]]]                                             
  H          -7.189835             4.229594             4.185290            1             0.031932    [1[6[8][1][1]]]                                             
