12

  C           5.736915             6.096399            -5.489844            0             0.099454    [6[8[1]][1][1][1]]                                          
  O           5.154897             4.938208            -6.015251            0            -0.597823    [8[6[1][1][1]][1]]                                          
  H           5.492586             4.122501            -5.681083            0             0.402573    [1[8[6]]]                                                   
  H           5.357355             6.307799            -4.486453            0             0.031932    [1[6[8][1][1]]]                                             
  H           6.834772             6.055645            -5.421734            0             0.031932    [1[6[8][1][1]]]                                             
  H           5.315370             6.965713            -6.146136            0             0.031932    [1[6[8][1][1]]]                                             
  C           1.958789             7.786652            -8.516235            1             0.099454    [6[8[1]][1][1][1]]                                          
  O           2.687530             7.396123            -7.329947            1            -0.597823    [8[6[1][1][1]][1]]                                          
  H           2.140262             7.153206            -6.586185            1             0.402573    [1[8[6]]]                                                   
  H           1.182791             8.517347            -8.240774            1             0.031932    [1[6[8][1][1]]]                                             
  H           2.628012             8.296971            -9.136527            1             0.031932    [1[6[8][1][1]]]                                             
  H           1.555513             6.941600            -9.075943            1             0.031932    [1[6[8][1][1]]]                                             
