12

  C           3.491832             5.921540            -1.724368            0             0.099454    [6[8[1]][1][1][1]]                                          
  O           4.824403             6.440656            -1.614964            0            -0.597823    [8[6[1][1][1]][1]]                                          
  H           4.836970             7.326476            -2.011523            0             0.402573    [1[8[6]]]                                                   
  H           3.471760             5.696661            -2.854899            0             0.031932    [1[6[8][1][1]]]                                             
  H           3.418939             5.032817            -1.041004            0             0.031932    [1[6[8][1][1]]]                                             
  H           2.725228             6.618922            -1.522611            0             0.031932    [1[6[8][1][1]]]                                             
  C           7.133013             9.351744            -3.442943            1             0.099454    [6[8[1]][1][1][1]]                                          
  O           6.083416             8.428329            -3.613483            1            -0.597823    [8[6[1][1][1]][1]]                                          
  H           6.059717             8.191707            -4.544615            1             0.402573    [1[8[6]]]                                                   
  H           7.063335             10.164188           -4.251506            1             0.031932    [1[6[8][1][1]]]                                             
  H           7.025384             9.911702            -2.504174            1             0.031932    [1[6[8][1][1]]]                                             
  H           8.140080             8.957841            -3.580131            1             0.031932    [1[6[8][1][1]]]                                             
