12

  C          -3.613576             2.949622             3.934506            0             0.099454    [6[8[1]][1][1][1]]                                          
  O          -3.601508             3.698823             5.159507            0            -0.597823    [8[6[1][1][1]][1]]                                          
  H          -2.638820             3.713132             5.390762            0             0.402573    [1[8[6]]]                                                   
  H          -2.909974             3.467466             3.239017            0             0.031932    [1[6[8][1][1]]]                                             
  H          -3.265800             1.935287             3.994618            0             0.031932    [1[6[8][1][1]]]                                             
  H          -4.596142             2.930245             3.440482            0             0.031932    [1[6[8][1][1]]]                                             
  C           0.073207             3.280420             4.744708            1             0.099454    [6[8[1]][1][1][1]]                                          
  O          -0.777346             4.145417             5.499248            1            -0.597823    [8[6[1][1][1]][1]]                                          
  H          -0.465038             4.121903             6.407785            1             0.402573    [1[8[6]]]                                                   
  H           1.088714             3.540638             4.926400            1             0.031932    [1[6[8][1][1]]]                                             
  H           0.023586             2.303060             5.157050            1             0.031932    [1[6[8][1][1]]]                                             
  H          -0.040117             3.339934             3.648191            1             0.031932    [1[6[8][1][1]]]                                             
