12

  C           8.231847             4.812904             2.218231            0             0.099454    [6[8[1]][1][1][1]]                                          
  O           7.857317             4.358539             3.507066            0            -0.597823    [8[6[1][1][1]][1]]                                          
  H           8.511085             3.740002             3.820354            0             0.402573    [1[8[6]]]                                                   
  H           9.259510             4.563071             1.868465            0             0.031932    [1[6[8][1][1]]]                                             
  H           7.425748             4.418321             1.520043            0             0.031932    [1[6[8][1][1]]]                                             
  H           8.132544             5.888729             2.119775            0             0.031932    [1[6[8][1][1]]]                                             
  C           7.494727             8.134925            -0.722727            1             0.099454    [6[8[1]][1][1][1]]                                          
  O           8.357593             7.934311             0.404555            1            -0.597823    [8[6[1][1][1]][1]]                                          
  H           7.854414             7.635189             1.145632            1             0.402573    [1[8[6]]]                                                   
  H           6.762879             8.919248            -0.549559            1             0.031932    [1[6[8][1][1]]]                                             
  H           8.154351             8.263676            -1.626165            1             0.031932    [1[6[8][1][1]]]                                             
  H           6.913153             7.207974            -0.990278            1             0.031932    [1[6[8][1][1]]]                                             
