12

  C          -0.715228             1.050743             2.453242            0             0.099454    [6[8[1]][1][1][1]]                                          
  O          -1.854007             0.340821             2.144338            0            -0.597823    [8[6[1][1][1]][1]]                                          
  H          -2.633239             0.803480             2.639829            0             0.402573    [1[8[6]]]                                                   
  H          -0.871798             2.130612             2.284487            0             0.031932    [1[6[8][1][1]]]                                             
  H          -0.449429             0.971583             3.539397            0             0.031932    [1[6[8][1][1]]]                                             
  H           0.102194             0.804007             1.757111            0             0.031932    [1[6[8][1][1]]]                                             
  C           1.357554             3.752919             0.927399            1             0.099454    [6[8[1]][1][1][1]]                                          
  O           2.636666             3.112207             1.170774            1            -0.597823    [8[6[1][1][1]][1]]                                          
  H           3.170213             3.525869             0.504691            1             0.402573    [1[8[6]]]                                                   
  H           1.409759             4.871002             1.051048            1             0.031932    [1[6[8][1][1]]]                                             
  H           0.903366             3.512577            -0.023999            1             0.031932    [1[6[8][1][1]]]                                             
  H           0.608316             3.462401             1.670895            1             0.031932    [1[6[8][1][1]]]                                             
