12

  C           5.326910             4.806322            -3.533113            0             0.099454    [6[8[1]][1][1][1]]                                          
  O           6.034877             3.972360            -4.447765            0            -0.597823    [8[6[1][1][1]][1]]                                          
  H           6.237275             3.163824            -3.960999            0             0.402573    [1[8[6]]]                                                   
  H           6.014065             5.326131            -2.833834            0             0.031932    [1[6[8][1][1]]]                                             
  H           4.817935             5.581777            -4.157801            0             0.031932    [1[6[8][1][1]]]                                             
  H           4.623172             4.233674            -2.922331            0             0.031932    [1[6[8][1][1]]]                                             
  C           2.403711             2.233500            -2.240277            1             0.099454    [6[8[1]][1][1][1]]                                          
  O           2.961890             1.900304            -3.510987            1            -0.597823    [8[6[1][1][1]][1]]                                          
  H           2.285466             2.224040            -4.178838            1             0.402573    [1[8[6]]]                                                   
  H           3.212827             2.323104            -1.545528            1             0.031932    [1[6[8][1][1]]]                                             
  H           1.740199             3.100437            -2.266122            1             0.031932    [1[6[8][1][1]]]                                             
  H           1.691648             1.586078            -1.791668            1             0.031932    [1[6[8][1][1]]]                                             
