12

  C          -4.944868            -6.379908            -6.736573            0             0.099454    [6[8[1]][1][1][1]]                                          
  O          -6.142319            -5.643729            -6.610150            0            -0.597823    [8[6[1][1][1]][1]]                                          
  H          -6.328640            -5.442620            -7.501184            0             0.402573    [1[8[6]]]                                                   
  H          -4.130525            -5.985907            -6.044649            0             0.031932    [1[6[8][1][1]]]                                             
  H          -5.172011            -7.357734            -6.328079            0             0.031932    [1[6[8][1][1]]]                                             
  H          -4.478197            -6.584611            -7.685240            0             0.031932    [1[6[8][1][1]]]                                             
  C          -10.334582           -4.254306            -5.781806            1             0.099454    [6[8[1]][1][1][1]]                                          
  O          -9.139955            -3.452755            -5.800609            1            -0.597823    [8[6[1][1][1]][1]]                                          
  H          -8.833748            -3.296327            -6.693903            1             0.402573    [1[8[6]]]                                                   
  H          -10.701949           -4.294493            -4.818483            1             0.031932    [1[6[8][1][1]]]                                             
  H          -11.133352           -3.759334            -6.328138            1             0.031932    [1[6[8][1][1]]]                                             
  H          -10.229096           -5.277931            -6.251611            1             0.031932    [1[6[8][1][1]]]                                             
