12

  C           3.221137             7.634066             8.195643            0             0.099454    [6[8[1]][1][1][1]]                                          
  O           3.982834             7.118366             9.205529            0            -0.597823    [8[6[1][1][1]][1]]                                          
  H           4.894659             7.152275             8.965242            0             0.402573    [1[8[6]]]                                                   
  H           3.626544             8.552249             7.826368            0             0.031932    [1[6[8][1][1]]]                                             
  H           3.290289             6.915142             7.335799            0             0.031932    [1[6[8][1][1]]]                                             
  H           2.201108             7.700457             8.443460            0             0.031932    [1[6[8][1][1]]]                                             
  C           0.171239             3.868132             9.450334            1             0.099454    [6[8[1]][1][1][1]]                                          
  O          -0.209914             3.238640             10.630685           1            -0.597823    [8[6[1][1][1]][1]]                                          
  H           0.561177             2.798170             11.029478           1             0.402573    [1[8[6]]]                                                   
  H           1.166986             3.610783             9.100167            1             0.031932    [1[6[8][1][1]]]                                             
  H          -0.447695             3.453236             8.613938            1             0.031932    [1[6[8][1][1]]]                                             
  H           0.012283             4.950917             9.402501            1             0.031932    [1[6[8][1][1]]]                                             
