12

  C          -4.783363             4.112619            -2.570429            0             0.099454    [6[8[1]][1][1][1]]                                          
  O          -6.170966             4.051347            -2.271669            0            -0.597823    [8[6[1][1][1]][1]]                                          
  H          -6.396381             3.112215            -2.297182            0             0.402573    [1[8[6]]]                                                   
  H          -4.677063             4.150604            -3.633048            0             0.031932    [1[6[8][1][1]]]                                             
  H          -4.392991             5.100541            -2.206898            0             0.031932    [1[6[8][1][1]]]                                             
  H          -4.210136             3.298748            -2.150329            0             0.031932    [1[6[8][1][1]]]                                             
  C          -5.044066             0.404302            -1.663991            1             0.099454    [6[8[1]][1][1][1]]                                          
  O          -6.434132             0.548854            -1.331317            1            -0.597823    [8[6[1][1][1]][1]]                                          
  H          -6.609572             0.645943            -0.347889            1             0.402573    [1[8[6]]]                                                   
  H          -4.488674             1.043460            -0.975449            1             0.031932    [1[6[8][1][1]]]                                             
  H          -4.723905            -0.685298            -1.583405            1             0.031932    [1[6[8][1][1]]]                                             
  H          -4.810426             0.769304            -2.685732            1             0.031932    [1[6[8][1][1]]]                                             
