12

  C          -7.182048            -8.914908             3.368324            0             0.099454    [6[8[1]][1][1][1]]                                          
  O          -6.336244            -8.077755             4.031345            0            -0.597823    [8[6[1][1][1]][1]]                                          
  H          -5.764151            -7.687476             3.377439            0             0.402573    [1[8[6]]]                                                   
  H          -8.127755            -8.413409             3.198987            0             0.031932    [1[6[8][1][1]]]                                             
  H          -6.764241            -9.326765             2.460549            0             0.031932    [1[6[8][1][1]]]                                             
  H          -7.566545            -9.683697             3.982529            0             0.031932    [1[6[8][1][1]]]                                             
  C          -8.801151            -5.176903             1.326026            1             0.099454    [6[8[1]][1][1][1]]                                          
  O          -7.588166            -4.639447             1.941820            1            -0.597823    [8[6[1][1][1]][1]]                                          
  H          -7.759714            -4.025085             2.664216            1             0.402573    [1[8[6]]]                                                   
  H          -9.543491            -4.380215             1.067353            1             0.031932    [1[6[8][1][1]]]                                             
  H          -8.560463            -5.647646             0.312321            1             0.031932    [1[6[8][1][1]]]                                             
  H          -9.253285            -5.901866             1.946932            1             0.031932    [1[6[8][1][1]]]                                             
