12

  C           5.267570            -1.081642             8.103618            0             0.099454    [6[8[1]][1][1][1]]                                          
  O           4.867190            -2.109481             8.947615            0            -0.597823    [8[6[1][1][1]][1]]                                          
  H           3.963623            -1.847875             9.170114            0             0.402573    [1[8[6]]]                                                   
  H           5.623439            -0.273538             8.761835            0             0.031932    [1[6[8][1][1]]]                                             
  H           6.051549            -1.305107             7.366669            0             0.031932    [1[6[8][1][1]]]                                             
  H           4.404855            -0.674548             7.564045            0             0.031932    [1[6[8][1][1]]]                                             
  C           8.943236            -1.585982             9.052341            1             0.099454    [6[8[1]][1][1][1]]                                          
  O           9.317679            -1.496538             10.405811           1            -0.597823    [8[6[1][1][1]][1]]                                          
  H           9.518352            -2.346955             10.770967           1             0.402573    [1[8[6]]]                                                   
  H           9.718151            -1.971585             8.443758            1             0.031932    [1[6[8][1][1]]]                                             
  H           8.064628            -2.168746             8.922126            1             0.031932    [1[6[8][1][1]]]                                             
  H           8.809738            -0.610024             8.567718            1             0.031932    [1[6[8][1][1]]]                                             
