12

  C           1.711450            -2.320812             7.646247            0             0.099454    [6[8[1]][1][1][1]]                                          
  O           2.272455            -2.607682             6.372565            0            -0.597823    [8[6[1][1][1]][1]]                                          
  H           2.541367            -3.494958             6.384661            0             0.402573    [1[8[6]]]                                                   
  H           1.660441            -3.176239             8.294267            0             0.031932    [1[6[8][1][1]]]                                             
  H           2.251824            -1.474142             8.110296            0             0.031932    [1[6[8][1][1]]]                                             
  H           0.626260            -1.930606             7.640705            0             0.031932    [1[6[8][1][1]]]                                             
  C          -0.382723            -3.622372             4.039118            1             0.099454    [6[8[1]][1][1][1]]                                          
  O          -0.641191            -3.237219             5.349221            1            -0.597823    [8[6[1][1][1]][1]]                                          
  H           0.064387            -2.676951             5.718612            1             0.402573    [1[8[6]]]                                                   
  H          -1.053173            -4.408750             3.598997            1             0.031932    [1[6[8][1][1]]]                                             
  H          -0.480557            -2.756405             3.381245            1             0.031932    [1[6[8][1][1]]]                                             
  H           0.636109            -4.001770             3.918250            1             0.031932    [1[6[8][1][1]]]                                             
