12

  C           5.188788             2.614549            -0.430988            0             0.099454    [6[8[1]][1][1][1]]                                          
  O           4.272714             3.629414            -0.212891            0            -0.597823    [8[6[1][1][1]][1]]                                          
  H           4.735754             4.461235            -0.188900            0             0.402573    [1[8[6]]]                                                   
  H           5.899015             2.492255             0.391204            0             0.031932    [1[6[8][1][1]]]                                             
  H           4.718363             1.670627            -0.695147            0             0.031932    [1[6[8][1][1]]]                                             
  H           5.822392             2.953750            -1.309417            0             0.031932    [1[6[8][1][1]]]                                             
  C           1.563923             4.822854            -2.055716            1             0.099454    [6[8[1]][1][1][1]]                                          
  O           1.026069             5.666654            -3.070397            1            -0.597823    [8[6[1][1][1]][1]]                                          
  H           1.205890             5.204161            -3.879448            1             0.402573    [1[8[6]]]                                                   
  H           1.124852             3.829493            -2.152610            1             0.031932    [1[6[8][1][1]]]                                             
  H           2.630486             4.837886            -2.065390            1             0.031932    [1[6[8][1][1]]]                                             
  H           1.210527             5.130865            -1.082344            1             0.031932    [1[6[8][1][1]]]                                             
