12

  C          -9.469355            -5.034915             5.023516            0             0.099454    [6[8[1]][1][1][1]]                                          
  O          -9.137636            -6.276195             4.482305            0            -0.597823    [8[6[1][1][1]][1]]                                          
  H          -8.185798            -6.198072             4.385905            0             0.402573    [1[8[6]]]                                                   
  H          -10.343936           -5.070091             5.588574            0             0.031932    [1[6[8][1][1]]]                                             
  H          -8.660249            -4.668172             5.713455            0             0.031932    [1[6[8][1][1]]]                                             
  H          -9.621374            -4.272023             4.221521            0             0.031932    [1[6[8][1][1]]]                                             
  C          -7.114895            -9.252736             2.911161            1             0.099454    [6[8[1]][1][1][1]]                                          
  O          -7.963711            -8.318133             2.377793            1            -0.597823    [8[6[1][1][1]][1]]                                          
  H          -8.671788            -8.236899             3.028148            1             0.402573    [1[8[6]]]                                                   
  H          -6.159559            -9.294814             2.385530            1             0.031932    [1[6[8][1][1]]]                                             
  H          -6.893088            -8.897432             3.925126            1             0.031932    [1[6[8][1][1]]]                                             
  H          -7.565943            -10.294245            2.959604            1             0.031932    [1[6[8][1][1]]]                                             
