12

  C          -0.584460             9.833385            -7.370606            0             0.099454    [6[8[1]][1][1][1]]                                          
  O           0.262817             9.973202            -6.259486            0            -0.597823    [8[6[1][1][1]][1]]                                          
  H          -0.083268             10.436978           -5.479950            0             0.402573    [1[8[6]]]                                                   
  H          -1.227082             10.668618           -7.422794            0             0.031932    [1[6[8][1][1]]]                                             
  H           0.023229             9.743565            -8.282138            0             0.031932    [1[6[8][1][1]]]                                             
  H          -1.232432             8.935795            -7.342917            0             0.031932    [1[6[8][1][1]]]                                             
  C          -4.073277             7.976176            -7.110372            1             0.099454    [6[8[1]][1][1][1]]                                          
  O          -5.078021             7.769096            -8.089968            1            -0.597823    [8[6[1][1][1]][1]]                                          
  H          -5.291997             8.628323            -8.440307            1             0.402573    [1[8[6]]]                                                   
  H          -4.462552             8.605275            -6.311199            1             0.031932    [1[6[8][1][1]]]                                             
  H          -3.792457             7.025304            -6.538516            1             0.031932    [1[6[8][1][1]]]                                             
  H          -3.206535             8.432150            -7.580872            1             0.031932    [1[6[8][1][1]]]                                             
