6

  C          -0.217516            -6.725133            -5.242275            0             0.089063    [6[8[1]][1][1][1]]                                          
  O           1.039129            -6.785138            -5.956436            0            -0.604789    [8[6[1][1][1]][1]]                                          
  H           1.404363            -5.934058            -6.087371            0             0.406250    [1[8[6]]]                                                   
  H          -1.110641            -6.670821            -5.945891            0             0.036492    [1[6[8][1][1]]]                                             
  H          -0.464051            -7.649077            -4.622488            0             0.036492    [1[6[8][1][1]]]                                             
  H          -0.297679            -5.921611            -4.543602            0             0.036492    [1[6[8][1][1]]]                                             
