12

  C           6.493591            -7.114689             5.665414            0             0.099454    [6[8[1]][1][1][1]]                                          
  O           7.749158            -7.200561             5.023627            0            -0.597823    [8[6[1][1][1]][1]]                                          
  H           8.417499            -7.256658             5.702624            0             0.402573    [1[8[6]]]                                                   
  H           6.411173            -7.828988             6.442911            0             0.031932    [1[6[8][1][1]]]                                             
  H           6.322881            -6.124128             6.161306            0             0.031932    [1[6[8][1][1]]]                                             
  H           5.695959            -7.314876             5.013645            0             0.031932    [1[6[8][1][1]]]                                             
  C           6.029280            -9.175350             9.917710            1             0.099454    [6[8[1]][1][1][1]]                                          
  O           7.212876            -8.355816             9.850832            1            -0.597823    [8[6[1][1][1]][1]]                                          
  H           7.738320            -8.490723             9.042693            1             0.402573    [1[8[6]]]                                                   
  H           6.303231            -10.242801            9.700826            1             0.031932    [1[6[8][1][1]]]                                             
  H           5.373470            -9.245646             10.809039           1             0.031932    [1[6[8][1][1]]]                                             
  H           5.365920            -8.959489             9.043971            1             0.031932    [1[6[8][1][1]]]                                             
