12

  C           8.147362             3.621650            -3.749684            0             0.099454    [6[8[1]][1][1][1]]                                          
  O           8.053980             4.057583            -2.454928            0            -0.597823    [8[6[1][1][1]][1]]                                          
  H           7.472880             3.409524            -2.063040            0             0.402573    [1[8[6]]]                                                   
  H           7.820027             2.626620            -3.885421            0             0.031932    [1[6[8][1][1]]]                                             
  H           7.487367             4.180078            -4.434288            0             0.031932    [1[6[8][1][1]]]                                             
  H           9.216773             3.642630            -4.117676            0             0.031932    [1[6[8][1][1]]]                                             
  C           4.204103             2.431317            -5.970019            1             0.099454    [6[8[1]][1][1][1]]                                          
  O           5.067774             2.272168            -4.820935            1            -0.597823    [8[6[1][1][1]][1]]                                          
  H           5.045180             3.168209            -4.363753            1             0.402573    [1[8[6]]]                                                   
  H           3.179644             2.543976            -5.666224            1             0.031932    [1[6[8][1][1]]]                                             
  H           4.404252             3.284659            -6.559099            1             0.031932    [1[6[8][1][1]]]                                             
  H           4.248912             1.564406            -6.637081            1             0.031932    [1[6[8][1][1]]]                                             
