12

  C          -9.583994            -5.979449            -1.643900            0             0.099454    [6[8[1]][1][1][1]]                                          
  O          -8.777595            -7.054590            -2.124363            0            -0.597823    [8[6[1][1][1]][1]]                                          
  H          -9.152976            -7.893258            -1.786761            0             0.402573    [1[8[6]]]                                                   
  H          -10.655389           -6.277400            -1.640308            0             0.031932    [1[6[8][1][1]]]                                             
  H          -9.376461            -5.652733            -0.626942            0             0.031932    [1[6[8][1][1]]]                                             
  H          -9.621946            -5.123964            -2.274368            0             0.031932    [1[6[8][1][1]]]                                             
  C          -11.135061           -10.299900           -0.591363            1             0.099454    [6[8[1]][1][1][1]]                                          
  O          -10.192228           -9.501531            -1.276407            1            -0.597823    [8[6[1][1][1]][1]]                                          
  H          -9.359619            -10.089819           -1.285653            1             0.402573    [1[8[6]]]                                                   
  H          -12.102193           -9.759656            -0.313300            1             0.031932    [1[6[8][1][1]]]                                             
  H          -11.571659           -11.060335           -1.312123            1             0.031932    [1[6[8][1][1]]]                                             
  H          -10.682713           -10.727243            0.315266            1             0.031932    [1[6[8][1][1]]]                                             
