12

  C          -3.092686            -1.451874             10.711364           0             0.099454    [6[8[1]][1][1][1]]                                          
  O          -2.273163            -2.540808             10.545648           0            -0.597823    [8[6[1][1][1]][1]]                                          
  H          -2.684214            -3.268882             11.063944           0             0.402573    [1[8[6]]]                                                   
  H          -4.148534            -1.721086             10.677316           0             0.031932    [1[6[8][1][1]]]                                             
  H          -2.829864            -0.967831             11.633750           0             0.031932    [1[6[8][1][1]]]                                             
  H          -2.944506            -0.806253             9.884226            0             0.031932    [1[6[8][1][1]]]                                             
  C          -4.954193            -1.007077             5.725889            1             0.099454    [6[8[1]][1][1][1]]                                          
  O          -5.433707            -2.057881             4.895753            1            -0.597823    [8[6[1][1][1]][1]]                                          
  H          -6.063997            -2.581622             5.463161            1             0.402573    [1[8[6]]]                                                   
  H          -4.383734            -0.223087             5.179228            1             0.031932    [1[6[8][1][1]]]                                             
  H          -5.828366            -0.499248             6.215455            1             0.031932    [1[6[8][1][1]]]                                             
  H          -4.311890            -1.387629             6.521910            1             0.031932    [1[6[8][1][1]]]                                             
