12

  C           2.311494            -9.830904            -8.216563            0             0.099454    [6[8[1]][1][1][1]]                                          
  O           3.558891            -10.484770           -8.480704            0            -0.597823    [8[6[1][1][1]][1]]                                          
  H           3.941405            -10.762820           -7.664795            0             0.402573    [1[8[6]]]                                                   
  H           2.383091            -9.009173            -7.449427            0             0.031932    [1[6[8][1][1]]]                                             
  H           1.831679            -9.423599            -9.122781            0             0.031932    [1[6[8][1][1]]]                                             
  H           1.578314            -10.570983           -7.892508            0             0.031932    [1[6[8][1][1]]]                                             
  C           3.900362            -6.476290            -6.855185            1             0.099454    [6[8[1]][1][1][1]]                                          
  O           3.207064            -5.324174            -6.360450            1            -0.597823    [8[6[1][1][1]][1]]                                          
  H           3.501172            -4.637270            -6.948847            1             0.402573    [1[8[6]]]                                                   
  H           3.526584            -6.779946            -7.863069            1             0.031932    [1[6[8][1][1]]]                                             
  H           4.986917            -6.359107            -6.996146            1             0.031932    [1[6[8][1][1]]]                                             
  H           3.705114            -7.313078            -6.190601            1             0.031932    [1[6[8][1][1]]]                                             
