12

  C          -7.667179            -9.209066             3.339312            0             0.099454    [6[8[1]][1][1][1]]                                          
  O          -8.331323            -9.779651             4.428187            0            -0.597823    [8[6[1][1][1]][1]]                                          
  H          -8.630029            -10.674345            4.174091            0             0.402573    [1[8[6]]]                                                   
  H          -6.594837            -9.317972             3.473686            0             0.031932    [1[6[8][1][1]]]                                             
  H          -7.952272            -9.648018             2.417688            0             0.031932    [1[6[8][1][1]]]                                             
  H          -7.931544            -8.142269             3.023550            0             0.031932    [1[6[8][1][1]]]                                             
  C          -9.648259            -7.114879             0.808518            1             0.099454    [6[8[1]][1][1][1]]                                          
  O          -10.714223           -6.721313             1.572976            1            -0.597823    [8[6[1][1][1]][1]]                                          
  H          -11.489091           -7.226045             1.245931            1             0.402573    [1[8[6]]]                                                   
  H          -8.693586            -6.596970             1.099219            1             0.031932    [1[6[8][1][1]]]                                             
  H          -9.395222            -8.139283             0.973610            1             0.031932    [1[6[8][1][1]]]                                             
  H          -9.822167            -7.014202            -0.280292            1             0.031932    [1[6[8][1][1]]]                                             
