12

  C           9.584878             9.486159            -2.318972            0             0.099454    [6[8[1]][1][1][1]]                                          
  O           8.406559             10.126476           -2.024404            0            -0.597823    [8[6[1][1][1]][1]]                                          
  H           7.795485             9.747395            -2.700372            0             0.402573    [1[8[6]]]                                                   
  H           9.401391             8.478447            -2.650509            0             0.031932    [1[6[8][1][1]]]                                             
  H           10.200250            10.016750           -3.046298            0             0.031932    [1[6[8][1][1]]]                                             
  H           10.196088            9.389947            -1.386170            0             0.031932    [1[6[8][1][1]]]                                             
  C           9.558170             8.529743             1.949500            1             0.099454    [6[8[1]][1][1][1]]                                          
  O           8.693735             7.594737             2.555653            1            -0.597823    [8[6[1][1][1]][1]]                                          
  H           9.183591             7.333835             3.340787            1             0.402573    [1[8[6]]]                                                   
  H           9.561195             9.357511             2.582736            1             0.031932    [1[6[8][1][1]]]                                             
  H           10.656874            8.230546             1.817094            1             0.031932    [1[6[8][1][1]]]                                             
  H           9.300392             8.859835             0.977610            1             0.031932    [1[6[8][1][1]]]                                             
