12

  C           0.922069             2.397543            -2.403654            0             0.099454    [6[8[1]][1][1][1]]                                          
  O           1.090850             1.893788            -3.723139            0            -0.597823    [8[6[1][1][1]][1]]                                          
  H           2.030726             1.818473            -3.731177            0             0.402573    [1[8[6]]]                                                   
  H          -0.032940             3.018168            -2.168044            0             0.031932    [1[6[8][1][1]]]                                             
  H           1.074150             1.541091            -1.683846            0             0.031932    [1[6[8][1][1]]]                                             
  H           1.780223             3.123276            -2.281301            0             0.031932    [1[6[8][1][1]]]                                             
  C          -0.695942            -1.118168            -4.644641            1             0.099454    [6[8[1]][1][1][1]]                                          
  O          -0.689851             0.124149            -5.212528            1            -0.597823    [8[6[1][1][1]][1]]                                          
  H          -0.049258             0.673570            -4.677234            1             0.402573    [1[8[6]]]                                                   
  H          -0.102550            -1.842898            -5.168804            1             0.031932    [1[6[8][1][1]]]                                             
  H          -0.440777            -1.019185            -3.624721            1             0.031932    [1[6[8][1][1]]]                                             
  H          -1.700991            -1.589887            -4.669325            1             0.031932    [1[6[8][1][1]]]                                             
