12

  C          -6.083136             5.885562             7.272078            0             0.099454    [6[8[1]][1][1][1]]                                          
  O          -5.275935             6.974609             7.448054            0            -0.597823    [8[6[1][1][1]][1]]                                          
  H          -4.771461             7.052453             6.604360            0             0.402573    [1[8[6]]]                                                   
  H          -6.995972             5.890797             7.959285            0             0.031932    [1[6[8][1][1]]]                                             
  H          -6.525911             5.758707             6.203153            0             0.031932    [1[6[8][1][1]]]                                             
  H          -5.455596             4.991916             7.471403            0             0.031932    [1[6[8][1][1]]]                                             
  C          -4.487210             10.815205            8.350348            1             0.099454    [6[8[1]][1][1][1]]                                          
  O          -4.551574             10.014269            9.504995            1            -0.597823    [8[6[1][1][1]][1]]                                          
  H          -5.360947             9.518464             9.275820            1             0.402573    [1[8[6]]]                                                   
  H          -5.241380             11.625561            8.355887            1             0.031932    [1[6[8][1][1]]]                                             
  H          -3.526033             11.207367            7.985136            1             0.031932    [1[6[8][1][1]]]                                             
  H          -4.922902             10.255765            7.497466            1             0.031932    [1[6[8][1][1]]]                                             
