12

  C          -1.585404             3.392058             7.212129            0             0.099454    [6[8[1]][1][1][1]]                                          
  O          -2.120105             3.744945             8.520689            0            -0.597823    [8[6[1][1][1]][1]]                                          
  H          -1.462705             3.477092             9.167592            0             0.402573    [1[8[6]]]                                                   
  H          -2.311762             3.531126             6.455074            0             0.031932    [1[6[8][1][1]]]                                             
  H          -0.759444             4.075805             6.822156            0             0.031932    [1[6[8][1][1]]]                                             
  H          -1.228848             2.336794             7.215379            0             0.031932    [1[6[8][1][1]]]                                             
  C          -5.313664             3.647078             3.927295            1             0.099454    [6[8[1]][1][1][1]]                                          
  O          -4.492355             3.867604             2.800797            1            -0.597823    [8[6[1][1][1]][1]]                                          
  H          -4.357079             4.800770             2.836203            1             0.402573    [1[8[6]]]                                                   
  H          -5.056100             4.335919             4.754357            1             0.031932    [1[6[8][1][1]]]                                             
  H          -6.403548             3.853132             3.636256            1             0.031932    [1[6[8][1][1]]]                                             
  H          -5.199479             2.610414             4.349662            1             0.031932    [1[6[8][1][1]]]                                             
