6

  C          -2.162940             5.925477            -11.747272           0             0.089063    [6[8[1]][1][1][1]]                                          
  O          -2.917976             6.879984            -12.351883           0            -0.604789    [8[6[1][1][1]][1]]                                          
  H          -2.493861             7.730069            -12.059770           0             0.406250    [1[8[6]]]                                                   
  H          -2.390660             5.898216            -10.696975           0             0.036492    [1[6[8][1][1]]]                                             
  H          -2.402999             4.987030            -12.186739           0             0.036492    [1[6[8][1][1]]]                                             
  H          -1.107598             6.173746            -11.939831           0             0.036492    [1[6[8][1][1]]]                                             
