12

  C           2.701878             9.705959             5.380964            0             0.099454    [6[8[1]][1][1][1]]                                          
  O           1.464070             9.997816             5.992280            0            -0.597823    [8[6[1][1][1]][1]]                                          
  H           1.000192             9.224758             6.311026            0             0.402573    [1[8[6]]]                                                   
  H           3.526265             9.544627             6.159898            0             0.031932    [1[6[8][1][1]]]                                             
  H           2.591694             8.808226             4.797396            0             0.031932    [1[6[8][1][1]]]                                             
  H           3.152210             10.482703            4.708439            0             0.031932    [1[6[8][1][1]]]                                             
  C           0.335127             6.368528             7.383852            1             0.099454    [6[8[1]][1][1][1]]                                          
  O           0.494388             7.192351             6.270742            1            -0.597823    [8[6[1][1][1]][1]]                                          
  H           0.338019             6.570554             5.491384            1             0.402573    [1[8[6]]]                                                   
  H          -0.092078             6.845019             8.282586            1             0.031932    [1[6[8][1][1]]]                                             
  H          -0.326130             5.576746             7.050708            1             0.031932    [1[6[8][1][1]]]                                             
  H           1.301061             6.010898             7.747708            1             0.031932    [1[6[8][1][1]]]                                             
