12

  C           6.664978             3.067073             1.226311            0             0.099454    [6[8[1]][1][1][1]]                                          
  O           8.059023             2.989451             1.564592            0            -0.597823    [8[6[1][1][1]][1]]                                          
  H           8.160365             2.945944             2.478638            0             0.402573    [1[8[6]]]                                                   
  H           6.091341             2.145018             1.217380            0             0.031932    [1[6[8][1][1]]]                                             
  H           6.072127             3.731938             1.852075            0             0.031932    [1[6[8][1][1]]]                                             
  H           6.459341             3.559162             0.310594            0             0.031932    [1[6[8][1][1]]]                                             
  C           7.901909             0.421615            -1.397861            1             0.099454    [6[8[1]][1][1][1]]                                          
  O           8.388678            -0.903477            -1.645681            1            -0.597823    [8[6[1][1][1]][1]]                                          
  H           8.347794            -1.011711            -2.624478            1             0.402573    [1[8[6]]]                                                   
  H           6.789285             0.488096            -1.529645            1             0.031932    [1[6[8][1][1]]]                                             
  H           8.017625             0.587816            -0.284820            1             0.031932    [1[6[8][1][1]]]                                             
  H           8.198702             1.272218            -2.006417            1             0.031932    [1[6[8][1][1]]]                                             
