12

  C           5.805939             10.294651           -6.906468            0             0.099454    [6[8[1]][1][1][1]]                                          
  O           5.983511             11.721538           -7.025334            0            -0.597823    [8[6[1][1][1]][1]]                                          
  H           5.096172             12.079015           -7.135066            0             0.402573    [1[8[6]]]                                                   
  H           5.223192             9.968730            -7.767834            0             0.031932    [1[6[8][1][1]]]                                             
  H           6.785383             9.801651            -6.954070            0             0.031932    [1[6[8][1][1]]]                                             
  H           5.389869             9.935072            -5.948628            0             0.031932    [1[6[8][1][1]]]                                             
  C           4.705725             8.901838            -1.620653            1             0.099454    [6[8[1]][1][1][1]]                                          
  O           3.504029             8.280824            -2.084138            1            -0.597823    [8[6[1][1][1]][1]]                                          
  H           3.786292             7.682769            -2.794021            1             0.402573    [1[8[6]]]                                                   
  H           5.179210             9.653084            -2.296664            1             0.031932    [1[6[8][1][1]]]                                             
  H           4.572387             9.390912            -0.647101            1             0.031932    [1[6[8][1][1]]]                                             
  H           5.505550             8.207702            -1.522932            1             0.031932    [1[6[8][1][1]]]                                             
