12

  C           5.544735            -10.686815            11.416384           0             0.099454    [6[8[1]][1][1][1]]                                          
  O           6.569693            -9.635221             11.320580           0            -0.597823    [8[6[1][1][1]][1]]                                          
  H           6.852224            -9.461157             10.453404           0             0.402573    [1[8[6]]]                                                   
  H           4.580030            -10.332522            11.784910           0             0.031932    [1[6[8][1][1]]]                                             
  H           5.292785            -11.100604            10.397652           0             0.031932    [1[6[8][1][1]]]                                             
  H           5.884410            -11.404736            12.195480           0             0.031932    [1[6[8][1][1]]]                                             
  C           2.525254            -10.630680            8.487032            1             0.099454    [6[8[1]][1][1][1]]                                          
  O           2.935585            -11.688310            7.675859            1            -0.597823    [8[6[1][1][1]][1]]                                          
  H           2.200639            -12.188776            7.438601            1             0.402573    [1[8[6]]]                                                   
  H           1.755658            -9.943445             7.952434            1             0.031932    [1[6[8][1][1]]]                                             
  H           1.961395            -10.815969            9.414507            1             0.031932    [1[6[8][1][1]]]                                             
  H           3.388686            -10.029008            8.725031            1             0.031932    [1[6[8][1][1]]]                                             
