12

  C          -5.176520            -0.642955             5.468790            0             0.099454    [6[8[1]][1][1][1]]                                          
  O          -4.038877            -1.295501             5.945422            0            -0.597823    [8[6[1][1][1]][1]]                                          
  H          -4.126203            -2.205438             5.650035            0             0.402573    [1[8[6]]]                                                   
  H          -5.286508            -0.774904             4.375683            0             0.031932    [1[6[8][1][1]]]                                             
  H          -6.105946            -0.911018             5.899308            0             0.031932    [1[6[8][1][1]]]                                             
  H          -5.090722             0.414521             5.747167            0             0.031932    [1[6[8][1][1]]]                                             
  C          -3.528699            -0.465896             9.810445            1             0.099454    [6[8[1]][1][1][1]]                                          
  O          -2.873749             0.137173             10.908916           1            -0.597823    [8[6[1][1][1]][1]]                                          
  H          -2.248066             0.745809             10.522661           1             0.402573    [1[8[6]]]                                                   
  H          -2.938057            -0.482912             8.871081            1             0.031932    [1[6[8][1][1]]]                                             
  H          -3.683485            -1.523379             9.932027            1             0.031932    [1[6[8][1][1]]]                                             
  H          -4.535832            -0.016877             9.543679            1             0.031932    [1[6[8][1][1]]]                                             
