12

  C          -4.905139             5.262568            -10.301868           0             0.099454    [6[8[1]][1][1][1]]                                          
  O          -4.333922             5.021783            -9.019390            0            -0.597823    [8[6[1][1][1]][1]]                                          
  H          -4.942635             5.445550            -8.437080            0             0.402573    [1[8[6]]]                                                   
  H          -4.087589             5.285542            -11.069867           0             0.031932    [1[6[8][1][1]]]                                             
  H          -5.760049             4.649201            -10.628340           0             0.031932    [1[6[8][1][1]]]                                             
  H          -5.338715             6.228068            -10.267397           0             0.031932    [1[6[8][1][1]]]                                             
  C          -7.808286             3.449472            -8.622125            1             0.099454    [6[8[1]][1][1][1]]                                          
  O          -7.706338             3.599859            -7.196613            1            -0.597823    [8[6[1][1][1]][1]]                                          
  H          -8.188647             2.857284            -6.813448            1             0.402573    [1[8[6]]]                                                   
  H          -7.272703             4.306873            -9.125757            1             0.031932    [1[6[8][1][1]]]                                             
  H          -7.322439             2.553376            -9.007611            1             0.031932    [1[6[8][1][1]]]                                             
  H          -8.796503             3.293070            -9.010614            1             0.031932    [1[6[8][1][1]]]                                             
