12

  C          -7.667179            -9.209066             3.339312            0             0.099454    [6[8[1]][1][1][1]]                                          
  O          -8.331323            -9.779651             4.428187            0            -0.597823    [8[6[1][1][1]][1]]                                          
  H          -8.630029            -10.674345            4.174091            0             0.402573    [1[8[6]]]                                                   
  H          -6.594837            -9.317972             3.473686            0             0.031932    [1[6[8][1][1]]]                                             
  H          -7.952272            -9.648018             2.417688            0             0.031932    [1[6[8][1][1]]]                                             
  H          -7.931544            -8.142269             3.023550            0             0.031932    [1[6[8][1][1]]]                                             
  C          -8.379231            -10.765680           -0.424398            1             0.099454    [6[8[1]][1][1][1]]                                          
  O          -8.380720            -11.920093           -1.267980            1            -0.597823    [8[6[1][1][1]][1]]                                          
  H          -8.745257            -11.575654           -2.064026            1             0.402573    [1[8[6]]]                                                   
  H          -7.604420            -10.957840            0.376978            1             0.031932    [1[6[8][1][1]]]                                             
  H          -8.112919            -9.830689            -0.986422            1             0.031932    [1[6[8][1][1]]]                                             
  H          -9.414097            -10.632708           -0.026955            1             0.031932    [1[6[8][1][1]]]                                             
