12

  C          -1.641794             5.307331             1.637861            0             0.099454    [6[8[1]][1][1][1]]                                          
  O          -2.575965             4.229584             1.491744            0            -0.597823    [8[6[1][1][1]][1]]                                          
  H          -2.767324             3.875175             2.374490            0             0.402573    [1[8[6]]]                                                   
  H          -1.946451             5.984514             2.464272            0             0.031932    [1[6[8][1][1]]]                                             
  H          -0.555480             5.066071             1.793109            0             0.031932    [1[6[8][1][1]]]                                             
  H          -1.550788             5.846078             0.708489            0             0.031932    [1[6[8][1][1]]]                                             
  C          -5.437243             2.893795             0.003744            1             0.099454    [6[8[1]][1][1][1]]                                          
  O          -6.339473             3.830913             0.590663            1            -0.597823    [8[6[1][1][1]][1]]                                          
  H          -6.962244             3.262412             1.060430            1             0.402573    [1[8[6]]]                                                   
  H          -4.843288             2.338916             0.754672            1             0.031932    [1[6[8][1][1]]]                                             
  H          -6.034146             2.131542            -0.547641            1             0.031932    [1[6[8][1][1]]]                                             
  H          -4.777210             3.354782            -0.710811            1             0.031932    [1[6[8][1][1]]]                                             
