12

  C           7.095750             3.934989             5.712976            0             0.099454    [6[8[1]][1][1][1]]                                          
  O           8.233398             3.019336             5.783510            0            -0.597823    [8[6[1][1][1]][1]]                                          
  H           8.730311             3.165655             4.956165            0             0.402573    [1[8[6]]]                                                   
  H           6.340234             3.723684             6.452433            0             0.031932    [1[6[8][1][1]]]                                             
  H           7.425371             4.894638             6.015371            0             0.031932    [1[6[8][1][1]]]                                             
  H           6.636750             3.988568             4.765022            0             0.031932    [1[6[8][1][1]]]                                             
  C           3.046509             2.841891             9.192081            1             0.099454    [6[8[1]][1][1][1]]                                          
  O           2.285587             2.160725             8.257124            1            -0.597823    [8[6[1][1][1]][1]]                                          
  H           2.375504             1.211638             8.317500            1             0.402573    [1[8[6]]]                                                   
  H           2.774781             2.634225             10.203713           1             0.031932    [1[6[8][1][1]]]                                             
  H           4.106382             2.650446             9.060975            1             0.031932    [1[6[8][1][1]]]                                             
  H           2.831567             3.885847             9.093850            1             0.031932    [1[6[8][1][1]]]                                             
