12

  C           2.765020            -4.179074             5.805482            0             0.099454    [6[8[1]][1][1][1]]                                          
  O           3.311683            -5.446056             6.177687            0            -0.597823    [8[6[1][1][1]][1]]                                          
  H           3.331339            -5.364676             7.148464            0             0.402573    [1[8[6]]]                                                   
  H           2.715584            -4.021929             4.701500            0             0.031932    [1[6[8][1][1]]]                                             
  H           1.758848            -4.116859             6.285104            0             0.031932    [1[6[8][1][1]]]                                             
  H           3.338024            -3.374553             6.326295            0             0.031932    [1[6[8][1][1]]]                                             
  C           7.671328            -2.158835             9.111072            1             0.099454    [6[8[1]][1][1][1]]                                          
  O           6.290404            -2.550753             9.166028            1            -0.597823    [8[6[1][1][1]][1]]                                          
  H           6.242656            -3.411438             8.695258            1             0.402573    [1[8[6]]]                                                   
  H           8.359693            -2.896538             9.464995            1             0.031932    [1[6[8][1][1]]]                                             
  H           8.076083            -1.876635             8.140413            1             0.031932    [1[6[8][1][1]]]                                             
  H           7.923211            -1.289379             9.767768            1             0.031932    [1[6[8][1][1]]]                                             
