12

  C          -6.481891            -7.877271             7.250222            0             0.099454    [6[8[1]][1][1][1]]                                          
  O          -6.198547            -6.565036             6.837370            0            -0.597823    [8[6[1][1][1]][1]]                                          
  H          -6.806889            -6.005382             7.336781            0             0.402573    [1[8[6]]]                                                   
  H          -7.552956            -8.073217             7.112625            0             0.031932    [1[6[8][1][1]]]                                             
  H          -5.784904            -8.580147             6.772301            0             0.031932    [1[6[8][1][1]]]                                             
  H          -6.373916            -7.930089             8.316778            0             0.031932    [1[6[8][1][1]]]                                             
  C          -8.218607            -8.383974             11.218942           1             0.099454    [6[8[1]][1][1][1]]                                          
  O          -8.945942            -7.373133             11.837279           1            -0.597823    [8[6[1][1][1]][1]]                                          
  H          -9.429018            -6.892765             11.130515           1             0.402573    [1[8[6]]]                                                   
  H          -8.804752            -9.064139             10.577870           1             0.031932    [1[6[8][1][1]]]                                             
  H          -7.481241            -8.065095             10.516309           1             0.031932    [1[6[8][1][1]]]                                             
  H          -7.782354            -9.026883             11.973043           1             0.031932    [1[6[8][1][1]]]                                             
