12

  C           3.966741             6.720232             0.746698            0             0.099454    [6[8[1]][1][1][1]]                                          
  O           3.416166             6.261532             2.001378            0            -0.597823    [8[6[1][1][1]][1]]                                          
  H           3.399390             5.330941             2.007699            0             0.402573    [1[8[6]]]                                                   
  H           4.958919             6.341420             0.529668            0             0.031932    [1[6[8][1][1]]]                                             
  H           3.288763             6.520529            -0.083598            0             0.031932    [1[6[8][1][1]]]                                             
  H           4.116659             7.806077             0.736759            0             0.031932    [1[6[8][1][1]]]                                             
  C           4.174423             2.521291             2.269891            1             0.099454    [6[8[1]][1][1][1]]                                          
  O           3.727706             3.617166             1.427619            1            -0.597823    [8[6[1][1][1]][1]]                                          
  H           3.640388             3.247452             0.542139            1             0.402573    [1[8[6]]]                                                   
  H           3.348106             1.928534             2.618243            1             0.031932    [1[6[8][1][1]]]                                             
  H           4.747251             1.855609             1.722985            1             0.031932    [1[6[8][1][1]]]                                             
  H           4.757139             2.821299             3.072047            1             0.031932    [1[6[8][1][1]]]                                             
