12

  C          -4.592135            -8.778354            -4.672863            0             0.099454    [6[8[1]][1][1][1]]                                          
  O          -4.996036            -7.685713            -3.782804            0            -0.597823    [8[6[1][1][1]][1]]                                          
  H          -4.696775            -7.821721            -2.928204            0             0.402573    [1[8[6]]]                                                   
  H          -3.534098            -9.010149            -4.638917            0             0.031932    [1[6[8][1][1]]]                                             
  H          -5.112055            -9.688766            -4.343416            0             0.031932    [1[6[8][1][1]]]                                             
  H          -4.938609            -8.647915            -5.698391            0             0.031932    [1[6[8][1][1]]]                                             
  C          -4.860387            -9.042144            -9.649226            1             0.099454    [6[8[1]][1][1][1]]                                          
  O          -5.304821            -10.405946           -9.588112            1            -0.597823    [8[6[1][1][1]][1]]                                          
  H          -4.701139            -10.883973           -8.971898            1             0.402573    [1[8[6]]]                                                   
  H          -5.546647            -8.382812            -10.145500           1             0.031932    [1[6[8][1][1]]]                                             
  H          -4.744645            -8.673357            -8.618931            1             0.031932    [1[6[8][1][1]]]                                             
  H          -3.819723            -8.963563            -9.981958            1             0.031932    [1[6[8][1][1]]]                                             
