12

  C           10.817425           -2.253238             2.686767            0             0.099454    [6[8[1]][1][1][1]]                                          
  O           11.196271           -2.498821             4.010807            0            -0.597823    [8[6[1][1][1]][1]]                                          
  H           10.538250           -2.908171             4.521803            0             0.402573    [1[8[6]]]                                                   
  H           9.929062            -1.706413             2.595542            0             0.031932    [1[6[8][1][1]]]                                             
  H           11.545464           -1.735707             2.147440            0             0.031932    [1[6[8][1][1]]]                                             
  H           10.553367           -3.127474             2.134818            0             0.031932    [1[6[8][1][1]]]                                             
  C           9.598185            -2.203292             7.606864            1             0.099454    [6[8[1]][1][1][1]]                                          
  O           9.218014            -2.751726             6.369150            1            -0.597823    [8[6[1][1][1]][1]]                                          
  H           8.917730            -1.988035             5.834676            1             0.402573    [1[8[6]]]                                                   
  H           9.861956            -2.945192             8.385856            1             0.031932    [1[6[8][1][1]]]                                             
  H           10.572371           -1.642456             7.436267            1             0.031932    [1[6[8][1][1]]]                                             
  H           8.937665            -1.366411             8.022716            1             0.031932    [1[6[8][1][1]]]                                             
