12

  C           3.346385             5.166609            -0.324777            0             0.099454    [6[8[1]][1][1][1]]                                          
  O           4.605433             4.856927            -0.851271            0            -0.597823    [8[6[1][1][1]][1]]                                          
  H           4.735588             5.658297            -1.389277            0             0.402573    [1[8[6]]]                                                   
  H           2.939554             4.225934            -0.016089            0             0.031932    [1[6[8][1][1]]]                                             
  H           3.411675             5.727115             0.579502            0             0.031932    [1[6[8][1][1]]]                                             
  H           2.613158             5.716876            -1.000328            0             0.031932    [1[6[8][1][1]]]                                             
  C           7.948919             5.705900             2.405429            1             0.099454    [6[8[1]][1][1][1]]                                          
  O           6.539732             5.500871             2.665796            1            -0.597823    [8[6[1][1][1]][1]]                                          
  H           6.234676             4.665391             2.277052            1             0.402573    [1[8[6]]]                                                   
  H           8.553581             5.239697             3.103390            1             0.031932    [1[6[8][1][1]]]                                             
  H           8.362494             5.393117             1.477451            1             0.031932    [1[6[8][1][1]]]                                             
  H           8.136218             6.764954             2.515097            1             0.031932    [1[6[8][1][1]]]                                             
