12

  C          -3.792512             1.488583            -7.452187            0             0.099454    [6[8[1]][1][1][1]]                                          
  O          -4.759811             2.049113            -8.376682            0            -0.597823    [8[6[1][1][1]][1]]                                          
  H          -4.986571             1.271547            -8.877913            0             0.402573    [1[8[6]]]                                                   
  H          -4.248719             0.778068            -6.799371            0             0.031932    [1[6[8][1][1]]]                                             
  H          -2.845662             1.009647            -7.852309            0             0.031932    [1[6[8][1][1]]]                                             
  H          -3.524249             2.327959            -6.747354            0             0.031932    [1[6[8][1][1]]]                                             
  C          -6.713916             4.633181            -9.298199            1             0.099454    [6[8[1]][1][1][1]]                                          
  O          -6.673973             4.227261            -7.932960            1            -0.597823    [8[6[1][1][1]][1]]                                          
  H          -5.894896             3.698962            -7.860099            1             0.402573    [1[8[6]]]                                                   
  H          -6.524925             3.883431            -10.035054           1             0.031932    [1[6[8][1][1]]]                                             
  H          -7.675923             5.006068            -9.523393            1             0.031932    [1[6[8][1][1]]]                                             
  H          -6.182964             5.551324            -9.587558            1             0.031932    [1[6[8][1][1]]]                                             
