12

  C           0.029205            -3.305085             5.575801            0             0.099454    [6[8[1]][1][1][1]]                                          
  O          -1.152025            -2.596991             5.492510            0            -0.597823    [8[6[1][1][1]][1]]                                          
  H          -0.980307            -2.042697             4.669758            0             0.402573    [1[8[6]]]                                                   
  H           0.889800            -2.641096             5.935441            0             0.031932    [1[6[8][1][1]]]                                             
  H          -0.058726            -4.169142             6.203153            0             0.031932    [1[6[8][1][1]]]                                             
  H           0.260555            -3.587206             4.550461            0             0.031932    [1[6[8][1][1]]]                                             
  C           1.463543            -4.993512             8.717868            1             0.099454    [6[8[1]][1][1][1]]                                          
  O           1.459707            -3.615025             8.438369            1            -0.597823    [8[6[1][1][1]][1]]                                          
  H           2.311640            -3.280222             8.110350            1             0.402573    [1[8[6]]]                                                   
  H           0.806054            -5.469183             8.034112            1             0.031932    [1[6[8][1][1]]]                                             
  H           2.417977            -5.332903             8.555645            1             0.031932    [1[6[8][1][1]]]                                             
  H           1.200727            -5.212282             9.774085            1             0.031932    [1[6[8][1][1]]]                                             
