12

  C           11.210682            9.246803             6.188863            0             0.099454    [6[8[1]][1][1][1]]                                          
  O           11.549430            8.223964             5.224175            0            -0.597823    [8[6[1][1][1]][1]]                                          
  H           11.164311            8.328825             4.327987            0             0.402573    [1[8[6]]]                                                   
  H           10.399351            9.964930             5.876393            0             0.031932    [1[6[8][1][1]]]                                             
  H           11.010089            8.837820             7.195674            0             0.031932    [1[6[8][1][1]]]                                             
  H           12.169177            9.877960             6.296828            0             0.031932    [1[6[8][1][1]]]                                             
  C           7.235443             9.089465             5.644530            1             0.099454    [6[8[1]][1][1][1]]                                          
  O           7.280481             9.683275             4.368788            1            -0.597823    [8[6[1][1][1]][1]]                                          
  H           6.414151             9.523031             3.910607            1             0.402573    [1[8[6]]]                                                   
  H           6.394428             9.403947             6.267391            1             0.031932    [1[6[8][1][1]]]                                             
  H           7.340276             7.952158             5.674665            1             0.031932    [1[6[8][1][1]]]                                             
  H           8.131908             9.358944             6.263459            1             0.031932    [1[6[8][1][1]]]                                             
