12

  C          -0.279772             8.880130            -5.984317            0             0.099454    [6[8[1]][1][1][1]]                                          
  O           0.783245             8.630714            -6.886738            0            -0.597823    [8[6[1][1][1]][1]]                                          
  H           0.274807             8.473379            -7.649880            0             0.402573    [1[8[6]]]                                                   
  H          -0.903684             9.718744            -6.263217            0             0.031932    [1[6[8][1][1]]]                                             
  H          -0.970593             8.024726            -5.917269            0             0.031932    [1[6[8][1][1]]]                                             
  H           0.085905             9.093486            -4.943612            0             0.031932    [1[6[8][1][1]]]                                             
  C           1.481568             11.224175           -2.803278            1             0.099454    [6[8[1]][1][1][1]]                                          
  O           0.321357             11.451695           -2.041558            1            -0.597823    [8[6[1][1][1]][1]]                                          
  H           0.369444             10.797276           -1.331065            1             0.402573    [1[8[6]]]                                                   
  H           1.394443             11.678209           -3.848719            1             0.031932    [1[6[8][1][1]]]                                             
  H           2.332418             11.683921           -2.407907            1             0.031932    [1[6[8][1][1]]]                                             
  H           1.728114             10.183127           -2.905787            1             0.031932    [1[6[8][1][1]]]                                             
