12

  C          -7.928530             3.771707            -6.464146            0             0.099454    [6[8[1]][1][1][1]]                                          
  O          -7.849009             4.322399            -5.205604            0            -0.597823    [8[6[1][1][1]][1]]                                          
  H          -7.952925             3.642590            -4.493695            0             0.402573    [1[8[6]]]                                                   
  H          -7.525502             2.716763            -6.413435            0             0.031932    [1[6[8][1][1]]]                                             
  H          -8.987006             3.641655            -6.788111            0             0.031932    [1[6[8][1][1]]]                                             
  H          -7.464347             4.472502            -7.174355            0             0.031932    [1[6[8][1][1]]]                                             
  C          -9.373559             0.297392            -6.536490            1             0.099454    [6[8[1]][1][1][1]]                                          
  O          -9.456627             1.047933            -5.265026            1            -0.597823    [8[6[1][1][1]][1]]                                          
  H          -9.619971             0.582751            -4.399038            1             0.402573    [1[8[6]]]                                                   
  H          -8.905925            -0.694538            -6.512490            1             0.031932    [1[6[8][1][1]]]                                             
  H          -10.378640            0.221856            -6.997461            1             0.031932    [1[6[8][1][1]]]                                             
  H          -8.830165             0.846990            -7.252988            1             0.031932    [1[6[8][1][1]]]                                             
