12

  C           6.764283            -9.797262             4.796798            0             0.099454    [6[8[1]][1][1][1]]                                          
  O           7.854235            -9.253086             5.558836            0            -0.597823    [8[6[1][1][1]][1]]                                          
  H           8.440373            -8.669675             5.044567            0             0.402573    [1[8[6]]]                                                   
  H           6.126712            -10.337744            5.499328            0             0.031932    [1[6[8][1][1]]]                                             
  H           6.264568            -8.981207             4.208230            0             0.031932    [1[6[8][1][1]]]                                             
  H           7.082795            -10.555114            4.057515            0             0.031932    [1[6[8][1][1]]]                                             
  C           4.453299            -7.891015             7.200770            1             0.099454    [6[8[1]][1][1][1]]                                          
  O           5.806999            -8.137532             7.399808            1            -0.597823    [8[6[1][1][1]][1]]                                          
  H           6.220994            -8.641215             6.728034            1             0.402573    [1[8[6]]]                                                   
  H           4.042633            -8.647299             6.533391            1             0.031932    [1[6[8][1][1]]]                                             
  H           3.871545            -7.952245             8.090356            1             0.031932    [1[6[8][1][1]]]                                             
  H           4.242423            -6.909423             6.841852            1             0.031932    [1[6[8][1][1]]]                                             
