12

  C          -8.073983             1.833345            -9.588540            0             0.099454    [6[8[1]][1][1][1]]                                          
  O          -7.130411             2.584063            -8.864001            0            -0.597823    [8[6[1][1][1]][1]]                                          
  H          -6.456292             1.998703            -8.551465            0             0.402573    [1[8[6]]]                                                   
  H          -8.235140             0.778497            -9.290424            0             0.031932    [1[6[8][1][1]]]                                             
  H          -9.112701             2.244961            -9.539074            0             0.031932    [1[6[8][1][1]]]                                             
  H          -7.848559             1.591181            -10.633758           0             0.031932    [1[6[8][1][1]]]                                             
  C          -5.422532            -0.561418            -9.388061            1             0.099454    [6[8[1]][1][1][1]]                                          
  O          -5.397293             0.003766            -8.132950            1            -0.597823    [8[6[1][1][1]][1]]                                          
  H          -4.584833            -0.355716            -7.780727            1             0.402573    [1[8[6]]]                                                   
  H          -6.177468             0.021668            -9.869926            1             0.031932    [1[6[8][1][1]]]                                             
  H          -4.539351            -0.243569            -10.024074           1             0.031932    [1[6[8][1][1]]]                                             
  H          -5.560223            -1.636570            -9.374983            1             0.031932    [1[6[8][1][1]]]                                             
