12

  C          -0.942349            -0.312623             6.462802            0             0.099454    [6[8[1]][1][1][1]]                                          
  O          -1.254387            -1.464392             7.229617            0            -0.597823    [8[6[1][1][1]][1]]                                          
  H          -0.880571            -2.244624             6.848968            0             0.402573    [1[8[6]]]                                                   
  H          -1.109190            -0.446360             5.396069            0             0.031932    [1[6[8][1][1]]]                                             
  H          -1.477128             0.535260             6.817403            0             0.031932    [1[6[8][1][1]]]                                             
  H           0.090158            -0.179774             6.506438            0             0.031932    [1[6[8][1][1]]]                                             
  C           2.150202            -4.868944             5.313812            1             0.099454    [6[8[1]][1][1][1]]                                          
  O           1.539903            -3.847500             6.025287            1            -0.597823    [8[6[1][1][1]][1]]                                          
  H           1.102995            -3.372393             5.293624            1             0.402573    [1[8[6]]]                                                   
  H           2.596078            -5.698066             5.913052            1             0.031932    [1[6[8][1][1]]]                                             
  H           1.498631            -5.241180             4.529990            1             0.031932    [1[6[8][1][1]]]                                             
  H           2.939477            -4.406176             4.686918            1             0.031932    [1[6[8][1][1]]]                                             
