12

  C          -2.839955            -3.953407            -0.078150            0             0.099454    [6[8[1]][1][1][1]]                                          
  O          -2.008247            -2.946951             0.371114            0            -0.597823    [8[6[1][1][1]][1]]                                          
  H          -2.187683            -2.219467            -0.178250            0             0.402573    [1[8[6]]]                                                   
  H          -3.058394            -3.772306            -1.120352            0             0.031932    [1[6[8][1][1]]]                                             
  H          -2.431864            -4.948480             0.016022            0             0.031932    [1[6[8][1][1]]]                                             
  H          -3.792097            -3.920621             0.402216            0             0.031932    [1[6[8][1][1]]]                                             
  C          -3.572831            -2.518480            -3.619282            1             0.099454    [6[8[1]][1][1][1]]                                          
  O          -2.201665            -2.609266            -3.374965            1            -0.597823    [8[6[1][1][1]][1]]                                          
  H          -1.933915            -3.521238            -3.503153            1             0.402573    [1[8[6]]]                                                   
  H          -4.055319            -3.201278            -2.917605            1             0.031932    [1[6[8][1][1]]]                                             
  H          -3.926328            -1.556956            -3.334496            1             0.031932    [1[6[8][1][1]]]                                             
  H          -3.891178            -2.573715            -4.624249            1             0.031932    [1[6[8][1][1]]]                                             
