12

  C           6.480167             4.850157             8.017725            0             0.099454    [6[8[1]][1][1][1]]                                          
  O           6.846940             3.890680             7.044795            0            -0.597823    [8[6[1][1][1]][1]]                                          
  H           7.195709             4.304133             6.297054            0             0.402573    [1[8[6]]]                                                   
  H           7.306813             5.169564             8.669647            0             0.031932    [1[6[8][1][1]]]                                             
  H           6.202793             5.826223             7.485602            0             0.031932    [1[6[8][1][1]]]                                             
  H           5.554086             4.491351             8.572135            0             0.031932    [1[6[8][1][1]]]                                             
  C           3.882099             2.184451             9.631789            1             0.099454    [6[8[1]][1][1][1]]                                          
  O           3.000402             1.722886             10.616465           1            -0.597823    [8[6[1][1][1]][1]]                                          
  H           2.309864             1.192647             10.191350           1             0.402573    [1[8[6]]]                                                   
  H           3.353727             2.811146             8.937022            1             0.031932    [1[6[8][1][1]]]                                             
  H           4.641639             2.952712             9.894458            1             0.031932    [1[6[8][1][1]]]                                             
  H           4.327532             1.397473             9.044047            1             0.031932    [1[6[8][1][1]]]                                             
