12

  C          -7.955104             7.258988            -0.000909            0             0.099454    [6[8[1]][1][1][1]]                                          
  O          -6.999402             6.220627            -0.233799            0            -0.597823    [8[6[1][1][1]][1]]                                          
  H          -7.240570             5.795469            -1.073477            0             0.402573    [1[8[6]]]                                                   
  H          -8.423059             7.641103            -0.925569            0             0.031932    [1[6[8][1][1]]]                                             
  H          -8.745755             6.813650             0.565362            0             0.031932    [1[6[8][1][1]]]                                             
  H          -7.638297             8.141113             0.464087            0             0.031932    [1[6[8][1][1]]]                                             
  C          -5.366671             8.115586            -2.140902            1             0.099454    [6[8[1]][1][1][1]]                                          
  O          -4.499246             7.076920            -1.602911            1            -0.597823    [8[6[1][1][1]][1]]                                          
  H          -5.109397             6.560541            -1.036385            1             0.402573    [1[8[6]]]                                                   
  H          -5.560113             8.770428            -1.376646            1             0.031932    [1[6[8][1][1]]]                                             
  H          -4.820273             8.763436            -2.871376            1             0.031932    [1[6[8][1][1]]]                                             
  H          -6.320221             7.728948            -2.542208            1             0.031932    [1[6[8][1][1]]]                                             
