12

  C          -1.479890            -2.782146            -10.347695           0             0.099454    [6[8[1]][1][1][1]]                                          
  O          -2.119262            -3.328411            -11.446586           0            -0.597823    [8[6[1][1][1]][1]]                                          
  H          -1.445049            -3.506653            -12.123038           0             0.402573    [1[8[6]]]                                                   
  H          -2.045989            -2.790401            -9.457301            0             0.031932    [1[6[8][1][1]]]                                             
  H          -0.487859            -3.274771            -10.077993           0             0.031932    [1[6[8][1][1]]]                                             
  H          -1.208709            -1.733125            -10.415487           0             0.031932    [1[6[8][1][1]]]                                             
  C           2.034985            -2.744475            -5.817266            1             0.099454    [6[8[1]][1][1][1]]                                          
  O           2.736555            -2.909609            -4.626492            1            -0.597823    [8[6[1][1][1]][1]]                                          
  H           2.092520            -3.008004            -3.924737            1             0.402573    [1[8[6]]]                                                   
  H           2.544298            -3.003204            -6.733796            1             0.031932    [1[6[8][1][1]]]                                             
  H           1.109340            -3.362636            -5.890541            1             0.031932    [1[6[8][1][1]]]                                             
  H           1.652417            -1.735797            -6.016755            1             0.031932    [1[6[8][1][1]]]                                             
