12

  C           7.712186            -6.551031             7.430713            0             0.099454    [6[8[1]][1][1][1]]                                          
  O           6.356131            -6.462621             7.029702            0            -0.597823    [8[6[1][1][1]][1]]                                          
  H           6.229425            -6.355896             6.039159            0             0.402573    [1[8[6]]]                                                   
  H           7.888485            -6.577326             8.505830            0             0.031932    [1[6[8][1][1]]]                                             
  H           8.158836            -7.446520             7.052474            0             0.031932    [1[6[8][1][1]]]                                             
  H           8.295175            -5.696844             7.093777            0             0.031932    [1[6[8][1][1]]]                                             
  C           5.345835            -5.496980             10.131205           1             0.099454    [6[8[1]][1][1][1]]                                          
  O           4.489622            -6.041958             9.117409            1            -0.597823    [8[6[1][1][1]][1]]                                          
  H           5.107373            -5.994451             8.335632            1             0.402573    [1[8[6]]]                                                   
  H           6.241814            -6.084614             10.236029           1             0.031932    [1[6[8][1][1]]]                                             
  H           5.692882            -4.544201             9.687126            1             0.031932    [1[6[8][1][1]]]                                             
  H           4.908284            -5.200487             11.125695           1             0.031932    [1[6[8][1][1]]]                                             
