12

  C          -10.905900            4.691083            -2.253207            0             0.099454    [6[8[1]][1][1][1]]                                          
  O          -10.279769            5.614224            -1.330346            0            -0.597823    [8[6[1][1][1]][1]]                                          
  H          -9.385260             5.194568            -1.209136            0             0.402573    [1[8[6]]]                                                   
  H          -10.600966            3.681428            -1.983528            0             0.031932    [1[6[8][1][1]]]                                             
  H          -12.013929            4.621975            -2.190608            0             0.031932    [1[6[8][1][1]]]                                             
  H          -10.508942            4.939356            -3.231760            0             0.031932    [1[6[8][1][1]]]                                             
  C          -7.069436             4.710049            -4.173068            1             0.099454    [6[8[1]][1][1][1]]                                          
  O          -7.364946             5.478951            -2.979066            1            -0.597823    [8[6[1][1][1]][1]]                                          
  H          -7.815048             6.334427            -3.175084            1             0.402573    [1[8[6]]]                                                   
  H          -6.428406             3.874284            -3.930640            1             0.031932    [1[6[8][1][1]]]                                             
  H          -8.027823             4.256572            -4.508714            1             0.031932    [1[6[8][1][1]]]                                             
  H          -6.609896             5.318532            -5.031137            1             0.031932    [1[6[8][1][1]]]                                             
