12

  C          -2.564663            -10.829491            0.819036            0             0.099454    [6[8[1]][1][1][1]]                                          
  O          -1.332082            -11.025152            1.444712            0            -0.597823    [8[6[1][1][1]][1]]                                          
  H          -1.579110            -11.609815            2.161669            0             0.402573    [1[8[6]]]                                                   
  H          -2.334350            -10.176657           -0.055430            0             0.031932    [1[6[8][1][1]]]                                             
  H          -2.996839            -11.752730            0.453297            0             0.031932    [1[6[8][1][1]]]                                             
  H          -3.253794            -10.236978            1.399588            0             0.031932    [1[6[8][1][1]]]                                             
  C          -2.822106            -6.085736            -1.176755            1             0.099454    [6[8[1]][1][1][1]]                                          
  O          -3.789893            -5.113760            -1.527374            1            -0.597823    [8[6[1][1][1]][1]]                                          
  H          -3.604599            -4.836163            -2.428664            1             0.402573    [1[8[6]]]                                                   
  H          -2.878107            -6.458377            -0.129660            1             0.031932    [1[6[8][1][1]]]                                             
  H          -3.004079            -7.001722            -1.785518            1             0.031932    [1[6[8][1][1]]]                                             
  H          -1.772032            -5.826970            -1.226930            1             0.031932    [1[6[8][1][1]]]                                             
