12

  C           7.303674             0.687426             6.517185            0             0.099454    [6[8[1]][1][1][1]]                                          
  O           7.707774             1.463133             5.439199            0            -0.597823    [8[6[1][1][1]][1]]                                          
  H           7.376451             2.362845             5.531690            0             0.402573    [1[8[6]]]                                                   
  H           7.904835            -0.202361             6.651812            0             0.031932    [1[6[8][1][1]]]                                             
  H           7.412063             1.245180             7.486515            0             0.031932    [1[6[8][1][1]]]                                             
  H           6.233770             0.467527             6.340801            0             0.031932    [1[6[8][1][1]]]                                             
  C           5.256442             3.173701             4.330914            1             0.099454    [6[8[1]][1][1][1]]                                          
  O           5.647779             3.333847             5.672779            1            -0.597823    [8[6[1][1][1]][1]]                                          
  H           4.899699             3.045901             6.165063            1             0.402573    [1[8[6]]]                                                   
  H           5.243303             4.136426             3.826357            1             0.031932    [1[6[8][1][1]]]                                             
  H           5.965825             2.565790             3.787552            1             0.031932    [1[6[8][1][1]]]                                             
  H           4.380051             2.629932             4.138270            1             0.031932    [1[6[8][1][1]]]                                             
