12

  C          -10.695807           -6.649651             4.959832            0             0.099454    [6[8[1]][1][1][1]]                                          
  O          -11.428309           -5.754532             5.794819            0            -0.597823    [8[6[1][1][1]][1]]                                          
  H          -12.313601           -5.589736             5.453743            0             0.402573    [1[8[6]]]                                                   
  H          -11.365032           -7.374430             4.521126            0             0.031932    [1[6[8][1][1]]]                                             
  H          -10.312134           -6.161509             4.072612            0             0.031932    [1[6[8][1][1]]]                                             
  H          -9.801205            -7.105240             5.391306            0             0.031932    [1[6[8][1][1]]]                                             
  C          -10.115336           -9.962653             7.892501            1             0.099454    [6[8[1]][1][1][1]]                                          
  O          -10.550402           -10.249533            6.554550            1            -0.597823    [8[6[1][1][1]][1]]                                          
  H          -11.498959           -10.343096            6.567028            1             0.402573    [1[8[6]]]                                                   
  H          -10.584167           -9.103896             8.312980            1             0.031932    [1[6[8][1][1]]]                                             
  H          -10.367627           -10.756341            8.635410            1             0.031932    [1[6[8][1][1]]]                                             
  H          -9.030777            -9.871222             7.854316            1             0.031932    [1[6[8][1][1]]]                                             
