12

  C           8.208089             3.975349            -1.861267            0             0.099454    [6[8[1]][1][1][1]]                                          
  O           7.813825             2.619600            -2.292651            0            -0.597823    [8[6[1][1][1]][1]]                                          
  H           7.000944             2.319256            -1.900115            0             0.402573    [1[8[6]]]                                                   
  H           8.304451             4.108650            -0.728916            0             0.031932    [1[6[8][1][1]]]                                             
  H           9.262322             4.143959            -2.354098            0             0.031932    [1[6[8][1][1]]]                                             
  H           7.514508             4.812777            -2.164203            0             0.031932    [1[6[8][1][1]]]                                             
  C           4.799980             6.006494            -5.167319            1             0.099454    [6[8[1]][1][1][1]]                                          
  O           3.951177             6.217455            -4.023773            1            -0.597823    [8[6[1][1][1]][1]]                                          
  H           3.955789             5.362684            -3.580391            1             0.402573    [1[8[6]]]                                                   
  H           4.974411             6.973716            -5.687132            1             0.031932    [1[6[8][1][1]]]                                             
  H           5.733022             5.639043            -4.789739            1             0.031932    [1[6[8][1][1]]]                                             
  H           4.363213             5.250652            -5.814487            1             0.031932    [1[6[8][1][1]]]                                             
