12

  C           5.651281            -6.607152            -7.131808            0             0.099454    [6[8[1]][1][1][1]]                                          
  O           4.421029            -6.172387            -6.635053            0            -0.597823    [8[6[1][1][1]][1]]                                          
  H           3.846128            -6.941923            -6.443546            0             0.402573    [1[8[6]]]                                                   
  H           6.331579            -5.736460            -7.229165            0             0.031932    [1[6[8][1][1]]]                                             
  H           6.041744            -7.382705            -6.519006            0             0.031932    [1[6[8][1][1]]]                                             
  H           5.543523            -7.079936            -8.062609            0             0.031932    [1[6[8][1][1]]]                                             
  C           6.956451            -9.205344            -8.643330            1             0.099454    [6[8[1]][1][1][1]]                                          
  O           7.494626            -10.312251           -7.958313            1            -0.597823    [8[6[1][1][1]][1]]                                          
  H           8.472069            -10.342811           -7.894098            1             0.402573    [1[8[6]]]                                                   
  H           6.294432            -8.670516            -7.976908            1             0.031932    [1[6[8][1][1]]]                                             
  H           7.755436            -8.440596            -8.752240            1             0.031932    [1[6[8][1][1]]]                                             
  H           6.544276            -9.535706            -9.565708            1             0.031932    [1[6[8][1][1]]]                                             
