6

  C          -8.781960            -9.884936            -9.305959            0             0.089063    [6[8[1]][1][1][1]]                                          
  O          -9.052996            -8.527443            -9.170358            0            -0.604789    [8[6[1][1][1]][1]]                                          
  H          -8.982329            -8.136307            -10.047805           0             0.406250    [1[8[6]]]                                                   
  H          -8.691843            -10.104231           -10.378572           0             0.036492    [1[6[8][1][1]]]                                             
  H          -7.851427            -10.249795           -8.954686            0             0.036492    [1[6[8][1][1]]]                                             
  H          -9.573757            -10.486095           -8.844771            0             0.036492    [1[6[8][1][1]]]                                             
