12

  C           5.780890            -0.100329             3.149870            0             0.099454    [6[8[1]][1][1][1]]                                          
  O           5.712710             1.233009             3.418751            0            -0.597823    [8[6[1][1][1]][1]]                                          
  H           5.479120             1.654514             2.574819            0             0.402573    [1[8[6]]]                                                   
  H           5.821208            -0.761810             4.007093            0             0.031932    [1[6[8][1][1]]]                                             
  H           4.899948            -0.335933             2.576816            0             0.031932    [1[6[8][1][1]]]                                             
  H           6.631527            -0.432160             2.521753            0             0.031932    [1[6[8][1][1]]]                                             
  C           7.261605             1.466350             6.284958            1             0.099454    [6[8[1]][1][1][1]]                                          
  O           7.850771             2.055714             5.114323            1            -0.597823    [8[6[1][1][1]][1]]                                          
  H           7.089059             2.000772             4.509948            1             0.402573    [1[8[6]]]                                                   
  H           7.525624             0.434558             6.407042            1             0.031932    [1[6[8][1][1]]]                                             
  H           7.690589             1.843197             7.214637            1             0.031932    [1[6[8][1][1]]]                                             
  H           6.215779             1.506018             6.260861            1             0.031932    [1[6[8][1][1]]]                                             
