12

  C           11.272091           -7.066084             6.267247            0             0.099454    [6[8[1]][1][1][1]]                                          
  O           10.898826           -8.066207             7.160887            0            -0.597823    [8[6[1][1][1]][1]]                                          
  H           10.641213           -8.853591             6.664722            0             0.402573    [1[8[6]]]                                                   
  H           12.077260           -7.458743             5.579053            0             0.031932    [1[6[8][1][1]]]                                             
  H           10.399957           -6.648643             5.725783            0             0.031932    [1[6[8][1][1]]]                                             
  H           11.619419           -6.256369             6.893720            0             0.031932    [1[6[8][1][1]]]                                             
  C           11.006891           -11.305277            5.530329            1             0.099454    [6[8[1]][1][1][1]]                                          
  O           10.891609           -10.011666            4.896701            1            -0.597823    [8[6[1][1][1]][1]]                                          
  H           10.982195           -10.160773            3.978615            1             0.402573    [1[8[6]]]                                                   
  H           12.075886           -11.545045            5.408284            1             0.031932    [1[6[8][1][1]]]                                             
  H           10.764064           -11.395288            6.545595            1             0.031932    [1[6[8][1][1]]]                                             
  H           10.450001           -12.165568            5.031934            1             0.031932    [1[6[8][1][1]]]                                             
