12

  C          -10.731025            2.823541            -1.194444            0             0.099454    [6[8[1]][1][1][1]]                                          
  O          -10.503371            3.750135            -0.081358            0            -0.597823    [8[6[1][1][1]][1]]                                          
  H          -9.717192             3.611297             0.489731            0             0.402573    [1[8[6]]]                                                   
  H          -10.037854            3.038673            -2.059465            0             0.031932    [1[6[8][1][1]]]                                             
  H          -10.587128            1.762189            -0.946121            0             0.031932    [1[6[8][1][1]]]                                             
  H          -11.729911            2.863897            -1.670803            0             0.031932    [1[6[8][1][1]]]                                             
  C          -10.694555            6.903999             1.611841            1             0.099454    [6[8[1]][1][1][1]]                                          
  O          -11.483823            6.538896             2.782815            1            -0.597823    [8[6[1][1][1]][1]]                                          
  H          -12.041855            7.289428             2.880631            1             0.402573    [1[8[6]]]                                                   
  H          -9.677858             7.194019             1.840411            1             0.031932    [1[6[8][1][1]]]                                             
  H          -10.593533            6.107070             0.841501            1             0.031932    [1[6[8][1][1]]]                                             
  H          -11.155392            7.777696             1.091477            1             0.031932    [1[6[8][1][1]]]                                             
