12

  C          -9.545944            -1.925808            -2.997380            0             0.099454    [6[8[1]][1][1][1]]                                          
  O          -9.264013            -3.170088            -3.475293            0            -0.597823    [8[6[1][1][1]][1]]                                          
  H          -8.769437            -3.667740            -2.835042            0             0.402573    [1[8[6]]]                                                   
  H          -8.792932            -1.236500            -3.249073            0             0.031932    [1[6[8][1][1]]]                                             
  H          -10.372462           -1.460632            -3.328128            0             0.031932    [1[6[8][1][1]]]                                             
  H          -9.761016            -1.989993            -1.908970            0             0.031932    [1[6[8][1][1]]]                                             
  C          -10.771748           -2.147596            -6.434548            1             0.099454    [6[8[1]][1][1][1]]                                          
  O          -11.023933           -3.535899            -6.412449            1            -0.597823    [8[6[1][1][1]][1]]                                          
  H          -10.411552           -3.910261            -5.800854            1             0.402573    [1[8[6]]]                                                   
  H          -11.190893           -1.574947            -7.314012            1             0.031932    [1[6[8][1][1]]]                                             
  H          -11.210914           -1.638381            -5.544509            1             0.031932    [1[6[8][1][1]]]                                             
  H          -9.661473            -1.957314            -6.485797            1             0.031932    [1[6[8][1][1]]]                                             
