12

  C          -5.212664             3.943820             1.077154            0             0.099454    [6[8[1]][1][1][1]]                                          
  O          -4.635611             3.193691             2.150803            0            -0.597823    [8[6[1][1][1]][1]]                                          
  H          -4.487130             2.298482             1.890738            0             0.402573    [1[8[6]]]                                                   
  H          -5.852676             3.303883             0.476393            0             0.031932    [1[6[8][1][1]]]                                             
  H          -5.783701             4.827074             1.361081            0             0.031932    [1[6[8][1][1]]]                                             
  H          -4.402067             4.410179             0.431093            0             0.031932    [1[6[8][1][1]]]                                             
  C          -1.740965             2.104542             1.445675            1             0.099454    [6[8[1]][1][1][1]]                                          
  O          -1.863457             2.703071             2.726920            1            -0.597823    [8[6[1][1][1]][1]]                                          
  H          -2.587182             3.316749             2.689241            1             0.402573    [1[8[6]]]                                                   
  H          -2.724843             1.937653             0.989999            1             0.031932    [1[6[8][1][1]]]                                             
  H          -1.282786             2.862374             0.775907            1             0.031932    [1[6[8][1][1]]]                                             
  H          -1.200960             1.167186             1.446292            1             0.031932    [1[6[8][1][1]]]                                             
