12

  C          -9.778594             2.584819            -7.098236            0             0.099454    [6[8[1]][1][1][1]]                                          
  O          -10.503116            3.623638            -6.480022            0            -0.597823    [8[6[1][1][1]][1]]                                          
  H          -10.501269            4.334988            -7.158476            0             0.402573    [1[8[6]]]                                                   
  H          -9.911806             2.435577            -8.131833            0             0.031932    [1[6[8][1][1]]]                                             
  H          -8.678102             2.671316            -7.052734            0             0.031932    [1[6[8][1][1]]]                                             
  H          -9.924804             1.624095            -6.681747            0             0.031932    [1[6[8][1][1]]]                                             
  C          -7.953406             5.982523            -7.280825            1             0.099454    [6[8[1]][1][1][1]]                                          
  O          -7.359437             5.843078            -5.989491            1            -0.597823    [8[6[1][1][1]][1]]                                          
  H          -6.422112             5.970046            -6.083202            1             0.402573    [1[8[6]]]                                                   
  H          -7.363661             5.353396            -8.045738            1             0.031932    [1[6[8][1][1]]]                                             
  H          -8.952876             5.610469            -7.321396            1             0.031932    [1[6[8][1][1]]]                                             
  H          -8.057900             7.016053            -7.638671            1             0.031932    [1[6[8][1][1]]]                                             
