12

  C           8.949076            -5.978823             1.374421            0             0.099454    [6[8[1]][1][1][1]]                                          
  O           8.061541            -5.195316             2.119433            0            -0.597823    [8[6[1][1][1]][1]]                                          
  H           7.149420            -5.531842             2.087189            0             0.402573    [1[8[6]]]                                                   
  H           8.545516            -6.842409             0.887766            0             0.031932    [1[6[8][1][1]]]                                             
  H           9.373425            -5.345801             0.537664            0             0.031932    [1[6[8][1][1]]]                                             
  H           9.797121            -6.359743             1.900939            0             0.031932    [1[6[8][1][1]]]                                             
  C           7.861879            -4.496772             6.753961            1             0.099454    [6[8[1]][1][1][1]]                                          
  O           9.034566            -3.777852             6.843670            1            -0.597823    [8[6[1][1][1]][1]]                                          
  H           9.748829            -4.155394             6.258686            1             0.402573    [1[8[6]]]                                                   
  H           8.176064            -5.511829             6.913816            1             0.031932    [1[6[8][1][1]]]                                             
  H           7.103023            -4.122016             7.543424            1             0.031932    [1[6[8][1][1]]]                                             
  H           7.464956            -4.472462             5.788678            1             0.031932    [1[6[8][1][1]]]                                             
