12

  C           9.572446             10.475268           -8.562947            0             0.099454    [6[8[1]][1][1][1]]                                          
  O           10.798079            10.308892           -9.289003            0            -0.597823    [8[6[1][1][1]][1]]                                          
  H           10.586593            10.330603           -10.240084           0             0.402573    [1[8[6]]]                                                   
  H           9.851286             10.567804           -7.528635            0             0.031932    [1[6[8][1][1]]]                                             
  H           8.970476             11.413618           -8.826023            0             0.031932    [1[6[8][1][1]]]                                             
  H           8.896146             9.621918            -8.749906            0             0.031932    [1[6[8][1][1]]]                                             
  C           10.075611            6.830938            -8.894365            1             0.099454    [6[8[1]][1][1][1]]                                          
  O           8.833961             6.302375            -8.430890            1            -0.597823    [8[6[1][1][1]][1]]                                          
  H           8.378268             6.007736            -9.213528            1             0.402573    [1[8[6]]]                                                   
  H           10.782056            7.052458            -8.123057            1             0.031932    [1[6[8][1][1]]]                                             
  H           10.633551            6.010513            -9.486578            1             0.031932    [1[6[8][1][1]]]                                             
  H           10.056742            7.765154            -9.460617            1             0.031932    [1[6[8][1][1]]]                                             
