12

  C           9.332024            -7.825781            -3.804788            0             0.099454    [6[8[1]][1][1][1]]                                          
  O           8.953421            -7.722838            -5.139420            0            -0.597823    [8[6[1][1][1]][1]]                                          
  H           8.371526            -8.481379            -5.322820            0             0.402573    [1[8[6]]]                                                   
  H           10.157458           -8.605935            -3.657025            0             0.031932    [1[6[8][1][1]]]                                             
  H           9.700460            -6.873416            -3.434979            0             0.031932    [1[6[8][1][1]]]                                             
  H           8.503247            -8.036935            -3.181149            0             0.031932    [1[6[8][1][1]]]                                             
  C           8.380588            -5.907847            -8.572776            1             0.099454    [6[8[1]][1][1][1]]                                          
  O           8.022990            -6.933117            -7.660695            1            -0.597823    [8[6[1][1][1]][1]]                                          
  H           8.461206            -6.706394            -6.841734            1             0.402573    [1[8[6]]]                                                   
  H           9.130769            -5.181895            -8.143659            1             0.031932    [1[6[8][1][1]]]                                             
  H           8.797686            -6.332623            -9.494423            1             0.031932    [1[6[8][1][1]]]                                             
  H           7.489045            -5.367509            -8.950615            1             0.031932    [1[6[8][1][1]]]                                             
