12

  C           7.783129            -4.327830            -2.139949            0             0.099454    [6[8[1]][1][1][1]]                                          
  O           8.538829            -3.183352            -2.235793            0            -0.597823    [8[6[1][1][1]][1]]                                          
  H           9.186373            -3.113510            -1.593900            0             0.402573    [1[8[6]]]                                                   
  H           8.386808            -5.185219            -2.334048            0             0.031932    [1[6[8][1][1]]]                                             
  H           7.505781            -4.489280            -1.123958            0             0.031932    [1[6[8][1][1]]]                                             
  H           6.890016            -4.297037            -2.756172            0             0.031932    [1[6[8][1][1]]]                                             
  C           10.311949           -0.204251            -2.808328            1             0.099454    [6[8[1]][1][1][1]]                                          
  O           10.231334            1.100341            -2.321599            1            -0.597823    [8[6[1][1][1]][1]]                                          
  H           10.876962            1.230900            -1.592367            1             0.402573    [1[8[6]]]                                                   
  H           9.962635            -0.245599            -3.763337            1             0.031932    [1[6[8][1][1]]]                                             
  H           11.283199           -0.694497            -2.911589            1             0.031932    [1[6[8][1][1]]]                                             
  H           9.708854            -0.907636            -2.254651            1             0.031932    [1[6[8][1][1]]]                                             
