12

  C          -0.612086             2.931693            -2.166030            0             0.099454    [6[8[1]][1][1][1]]                                          
  O          -1.917891             3.394526            -2.096503            0            -0.597823    [8[6[1][1][1]][1]]                                          
  H          -2.283379             3.362468            -1.200627            0             0.402573    [1[8[6]]]                                                   
  H          -0.456620             1.838111            -2.061463            0             0.031932    [1[6[8][1][1]]]                                             
  H          -0.083063             3.269453            -3.069938            0             0.031932    [1[6[8][1][1]]]                                             
  H          -0.006313             3.238354            -1.311755            0             0.031932    [1[6[8][1][1]]]                                             
  C          -5.012732             4.651737            -4.015420            1             0.099454    [6[8[1]][1][1][1]]                                          
  O          -5.313746             6.068341            -3.824211            1            -0.597823    [8[6[1][1][1]][1]]                                          
  H          -5.792739             6.296180            -4.612807            1             0.402573    [1[8[6]]]                                                   
  H          -4.509524             4.441952            -4.946995            1             0.031932    [1[6[8][1][1]]]                                             
  H          -4.294382             4.316787            -3.213413            1             0.031932    [1[6[8][1][1]]]                                             
  H          -5.939629             4.108769            -3.953471            1             0.031932    [1[6[8][1][1]]]                                             
