12

  C           0.989700             0.103803             9.865704            0             0.099454    [6[8[1]][1][1][1]]                                          
  O           1.265327             0.630240             11.214209           0            -0.597823    [8[6[1][1][1]][1]]                                          
  H           0.451374             1.012931             11.587193           0             0.402573    [1[8[6]]]                                                   
  H           0.426579            -0.844866             9.908428            0             0.031932    [1[6[8][1][1]]]                                             
  H           0.413281             0.719244             9.217680            0             0.031932    [1[6[8][1][1]]]                                             
  H           1.945017            -0.202523             9.432650            0             0.031932    [1[6[8][1][1]]]                                             
  C           2.386429             2.995195             8.591899            1             0.099454    [6[8[1]][1][1][1]]                                          
  O           1.849610             4.090954             7.926021            1            -0.597823    [8[6[1][1][1]][1]]                                          
  H           0.922716             3.954351             7.668493            1             0.402573    [1[8[6]]]                                                   
  H           3.472603             3.087747             8.957386            1             0.031932    [1[6[8][1][1]]]                                             
  H           1.871403             2.819979             9.530052            1             0.031932    [1[6[8][1][1]]]                                             
  H           2.375562             2.106276             7.946624            1             0.031932    [1[6[8][1][1]]]                                             
