12

  C          -6.876157            -3.537889             6.430555            0             0.099454    [6[8[1]][1][1][1]]                                          
  O          -7.557125            -4.068631             5.313738            0            -0.597823    [8[6[1][1][1]][1]]                                          
  H          -6.837903            -4.361989             4.734408            0             0.402573    [1[8[6]]]                                                   
  H          -6.067335            -2.821260             6.093197            0             0.031932    [1[6[8][1][1]]]                                             
  H          -7.594730            -2.834349             6.993745            0             0.031932    [1[6[8][1][1]]]                                             
  H          -6.463546            -4.327425             7.099497            0             0.031932    [1[6[8][1][1]]]                                             
  C          -6.519036            -7.512564             9.177170            1             0.099454    [6[8[1]][1][1][1]]                                          
  O          -7.307728            -7.397217             8.009092            1            -0.597823    [8[6[1][1][1]][1]]                                          
  H          -7.724737            -6.538943             8.143415            1             0.402573    [1[8[6]]]                                                   
  H          -6.581418            -8.454105             9.709755            1             0.031932    [1[6[8][1][1]]]                                             
  H          -5.418856            -7.311625             8.858509            1             0.031932    [1[6[8][1][1]]]                                             
  H          -6.842534            -6.728893             9.824663            1             0.031932    [1[6[8][1][1]]]                                             
