12

  C          -2.257604            -6.993449            -0.918277            0             0.099454    [6[8[1]][1][1][1]]                                          
  O          -2.080523            -8.395982            -0.827367            0            -0.597823    [8[6[1][1][1]][1]]                                          
  H          -2.059170            -8.743386             0.111713            0             0.402573    [1[8[6]]]                                                   
  H          -1.423130            -6.407729            -0.539471            0             0.031932    [1[6[8][1][1]]]                                             
  H          -2.370768            -6.724110            -2.003700            0             0.031932    [1[6[8][1][1]]]                                             
  H          -3.147931            -6.621619            -0.383193            0             0.031932    [1[6[8][1][1]]]                                             
  C          -0.928917            -10.983566           -2.640763            1             0.099454    [6[8[1]][1][1][1]]                                          
  O          -0.381111            -10.784562           -1.350864            1            -0.597823    [8[6[1][1][1]][1]]                                          
  H          -0.633451            -9.900913            -1.077589            1             0.402573    [1[8[6]]]                                                   
  H          -2.030045            -11.105637           -2.622247            1             0.031932    [1[6[8][1][1]]]                                             
  H          -0.622373            -10.169376           -3.405240            1             0.031932    [1[6[8][1][1]]]                                             
  H          -0.643391            -12.010807           -2.977018            1             0.031932    [1[6[8][1][1]]]                                             
