12

  C          -3.152113            -1.685180             5.511687            0             0.099454    [6[8[1]][1][1][1]]                                          
  O          -3.578452            -2.644021             4.578806            0            -0.597823    [8[6[1][1][1]][1]]                                          
  H          -2.831220            -3.224825             4.420491            0             0.402573    [1[8[6]]]                                                   
  H          -2.231712            -1.127083             5.128433            0             0.031932    [1[6[8][1][1]]]                                             
  H          -3.887088            -1.022022             5.889255            0             0.031932    [1[6[8][1][1]]]                                             
  H          -2.718246            -2.180419             6.352590            0             0.031932    [1[6[8][1][1]]]                                             
  C          -1.507390             1.154501             3.586945            1             0.099454    [6[8[1]][1][1][1]]                                          
  O          -2.170510             2.402761             3.694004            1            -0.597823    [8[6[1][1][1]][1]]                                          
  H          -2.738338             2.516325             2.930582            1             0.402573    [1[8[6]]]                                                   
  H          -0.792150             1.052577             4.403646            1             0.031932    [1[6[8][1][1]]]                                             
  H          -2.124443             0.255359             3.494135            1             0.031932    [1[6[8][1][1]]]                                             
  H          -0.882122             1.146564             2.670415            1             0.031932    [1[6[8][1][1]]]                                             
