12

  C           2.728777            -5.694057            -8.740329            0             0.099454    [6[8[1]][1][1][1]]                                          
  O           2.324008            -5.912598            -10.072786           0            -0.597823    [8[6[1][1][1]][1]]                                          
  H           2.987133            -6.439181            -10.468047           0             0.402573    [1[8[6]]]                                                   
  H           2.161046            -4.898734            -8.325374            0             0.031932    [1[6[8][1][1]]]                                             
  H           2.535671            -6.576832            -8.025007            0             0.031932    [1[6[8][1][1]]]                                             
  H           3.746550            -5.495858            -8.741357            0             0.031932    [1[6[8][1][1]]]                                             
  C           3.665648            -7.821168            -5.400636            1             0.099454    [6[8[1]][1][1][1]]                                          
  O           2.313230            -7.911947            -5.669289            1            -0.597823    [8[6[1][1][1]][1]]                                          
  H           1.928492            -8.336179            -4.940872            1             0.402573    [1[8[6]]]                                                   
  H           4.116049            -8.827274            -5.247889            1             0.031932    [1[6[8][1][1]]]                                             
  H           4.117865            -7.403982            -6.311332            1             0.031932    [1[6[8][1][1]]]                                             
  H           3.967369            -7.184332            -4.616387            1             0.031932    [1[6[8][1][1]]]                                             
