12

  C           2.271783             4.312011            -7.159874            0             0.099454    [6[8[1]][1][1][1]]                                          
  O           2.570680             5.480226            -7.904220            0            -0.597823    [8[6[1][1][1]][1]]                                          
  H           1.999187             6.184199            -7.560593            0             0.402573    [1[8[6]]]                                                   
  H           1.626125             4.495112            -6.288783            0             0.031932    [1[6[8][1][1]]]                                             
  H           1.894699             3.491721            -7.794099            0             0.031932    [1[6[8][1][1]]]                                             
  H           3.254316             4.008877            -6.639738            0             0.031932    [1[6[8][1][1]]]                                             
  C           3.001671             9.003757            -7.415550            1             0.099454    [6[8[1]][1][1][1]]                                          
  O           1.828529             8.232042            -7.387582            1            -0.597823    [8[6[1][1][1]][1]]                                          
  H           1.041302             8.845983            -7.278788            1             0.402573    [1[8[6]]]                                                   
  H           3.815855             8.468651            -7.852427            1             0.031932    [1[6[8][1][1]]]                                             
  H           2.893954             9.850733            -8.067275            1             0.031932    [1[6[8][1][1]]]                                             
  H           3.380725             9.387454            -6.458342            1             0.031932    [1[6[8][1][1]]]                                             
