12

  C           0.472502            -5.718188             10.271977           0             0.099454    [6[8[1]][1][1][1]]                                          
  O          -0.371856            -4.798705             9.647060            0            -0.597823    [8[6[1][1][1]][1]]                                          
  H          -0.902227            -4.476647             10.356303           0             0.402573    [1[8[6]]]                                                   
  H          -0.037570            -6.570400             10.726804           0             0.031932    [1[6[8][1][1]]]                                             
  H           1.235160            -6.131682             9.617108            0             0.031932    [1[6[8][1][1]]]                                             
  H           1.114302            -5.218436             11.018165           0             0.031932    [1[6[8][1][1]]]                                             
  C          -1.797046            -4.013629             6.412944            1             0.099454    [6[8[1]][1][1][1]]                                          
  O          -0.795036            -4.973618             6.750432            1            -0.597823    [8[6[1][1][1]][1]]                                          
  H          -0.643296            -5.071644             7.705553            1             0.402573    [1[8[6]]]                                                   
  H          -1.606571            -3.033322             6.892368            1             0.031932    [1[6[8][1][1]]]                                             
  H          -1.940865            -3.918832             5.324172            1             0.031932    [1[6[8][1][1]]]                                             
  H          -2.766463            -4.355614             6.819624            1             0.031932    [1[6[8][1][1]]]                                             
