12

  C           5.213601            -6.424230             1.445439            0             0.099454    [6[8[1]][1][1][1]]                                          
  O           5.630218            -5.208946             2.075847            0            -0.597823    [8[6[1][1][1]][1]]                                          
  H           5.563530            -4.576802             1.354313            0             0.402573    [1[8[6]]]                                                   
  H           5.329758            -7.331916             2.140380            0             0.031932    [1[6[8][1][1]]]                                             
  H           4.144093            -6.377885             1.182249            0             0.031932    [1[6[8][1][1]]]                                             
  H           5.866397            -6.714165             0.524728            0             0.031932    [1[6[8][1][1]]]                                             
  C           2.485700            -4.194704             5.209325            1             0.099454    [6[8[1]][1][1][1]]                                          
  O           3.663128            -3.523521             5.620104            1            -0.597823    [8[6[1][1][1]][1]]                                          
  H           4.428387            -4.028100             5.328446            1             0.402573    [1[8[6]]]                                                   
  H           1.622021            -3.552528             4.937602            1             0.031932    [1[6[8][1][1]]]                                             
  H           2.732808            -4.689680             4.272178            1             0.031932    [1[6[8][1][1]]]                                             
  H           2.145667            -4.967365             5.780073            1             0.031932    [1[6[8][1][1]]]                                             
