12

  C          -9.194448            -7.165680             8.606012            0             0.099454    [6[8[1]][1][1][1]]                                          
  O          -9.483807            -8.443194             7.922237            0            -0.597823    [8[6[1][1][1]][1]]                                          
  H          -8.780202            -9.018449             8.087057            0             0.402573    [1[8[6]]]                                                   
  H          -8.510834            -6.560886             7.980636            0             0.031932    [1[6[8][1][1]]]                                             
  H          -10.076085           -6.566288             8.744051            0             0.031932    [1[6[8][1][1]]]                                             
  H          -8.775180            -7.380842             9.649389            0             0.031932    [1[6[8][1][1]]]                                             
  C          -11.519906           -8.576182             3.288546            1             0.099454    [6[8[1]][1][1][1]]                                          
  O          -10.280663           -7.910189             3.193317            1            -0.597823    [8[6[1][1][1]][1]]                                          
  H          -10.455846           -7.073610             2.803393            1             0.402573    [1[8[6]]]                                                   
  H          -11.387200           -9.280236             4.162946            1             0.031932    [1[6[8][1][1]]]                                             
  H          -12.403518           -7.945626             3.420810            1             0.031932    [1[6[8][1][1]]]                                             
  H          -11.662015           -9.332106             2.526733            1             0.031932    [1[6[8][1][1]]]                                             
