12

  C           6.480167             4.850157             8.017725            0             0.099454    [6[8[1]][1][1][1]]                                          
  O           6.846940             3.890680             7.044795            0            -0.597823    [8[6[1][1][1]][1]]                                          
  H           7.195709             4.304133             6.297054            0             0.402573    [1[8[6]]]                                                   
  H           7.306813             5.169564             8.669647            0             0.031932    [1[6[8][1][1]]]                                             
  H           6.202793             5.826223             7.485602            0             0.031932    [1[6[8][1][1]]]                                             
  H           5.554086             4.491351             8.572135            0             0.031932    [1[6[8][1][1]]]                                             
  C           4.262847             0.709514             5.516234            1             0.099454    [6[8[1]][1][1][1]]                                          
  O           3.249038             1.221760             4.607938            1            -0.597823    [8[6[1][1][1]][1]]                                          
  H           2.759917             0.525777             4.274813            1             0.402573    [1[8[6]]]                                                   
  H           5.064640             1.369477             5.723628            1             0.031932    [1[6[8][1][1]]]                                             
  H           3.836143             0.461897             6.456810            1             0.031932    [1[6[8][1][1]]]                                             
  H           4.748013            -0.205630             5.211231            1             0.031932    [1[6[8][1][1]]]                                             
