12

  C           8.890115             0.877578            -5.366023            0             0.099454    [6[8[1]][1][1][1]]                                          
  O           8.996819            -0.564101            -5.245748            0            -0.597823    [8[6[1][1][1]][1]]                                          
  H           8.126220            -0.854251            -4.959975            0             0.402573    [1[8[6]]]                                                   
  H           9.850066             1.343533            -5.610203            0             0.031932    [1[6[8][1][1]]]                                             
  H           8.212699             1.095769            -6.173745            0             0.031932    [1[6[8][1][1]]]                                             
  H           8.386879             1.277392            -4.475505            0             0.031932    [1[6[8][1][1]]]                                             
  C           5.795858            -1.647453            -5.830630            1             0.099454    [6[8[1]][1][1][1]]                                          
  O           5.869837            -0.775283            -4.738957            1            -0.597823    [8[6[1][1][1]][1]]                                          
  H           5.230466            -0.069144            -4.910069            1             0.402573    [1[8[6]]]                                                   
  H           4.796597            -1.832304            -6.234244            1             0.031932    [1[6[8][1][1]]]                                             
  H           6.326652            -1.306599            -6.725164            1             0.031932    [1[6[8][1][1]]]                                             
  H           6.160488            -2.577209            -5.471482            1             0.031932    [1[6[8][1][1]]]                                             
