12

  C          -5.418018            -0.007236            -10.923150           0             0.099454    [6[8[1]][1][1][1]]                                          
  O          -5.591947             0.277668            -9.601627            0            -0.597823    [8[6[1][1][1]][1]]                                          
  H          -6.368987            -0.173418            -9.187840            0             0.402573    [1[8[6]]]                                                   
  H          -5.751665            -0.998123            -11.135027           0             0.031932    [1[6[8][1][1]]]                                             
  H          -6.004835             0.665018            -11.547061           0             0.031932    [1[6[8][1][1]]]                                             
  H          -4.359219            -0.088258            -11.079899           0             0.031932    [1[6[8][1][1]]]                                             
  C          -7.649662             3.831381            -11.862524           1             0.099454    [6[8[1]][1][1][1]]                                          
  O          -6.808156             4.356718            -10.908898           1            -0.597823    [8[6[1][1][1]][1]]                                          
  H          -6.539380             3.713442            -10.256033           1             0.402573    [1[8[6]]]                                                   
  H          -8.543952             3.343475            -11.337118           1             0.031932    [1[6[8][1][1]]]                                             
  H          -8.006381             4.584077            -12.619132           1             0.031932    [1[6[8][1][1]]]                                             
  H          -7.217232             2.943753            -12.322363           1             0.031932    [1[6[8][1][1]]]                                             
