12

  C           7.080465             6.516957            -4.207976            0             0.099454    [6[8[1]][1][1][1]]                                          
  O           6.784921             6.975024            -2.905480            0            -0.597823    [8[6[1][1][1]][1]]                                          
  H           7.228451             7.823128            -2.702105            0             0.402573    [1[8[6]]]                                                   
  H           8.166381             6.525138            -4.272871            0             0.031932    [1[6[8][1][1]]]                                             
  H           6.806733             5.484815            -4.307648            0             0.031932    [1[6[8][1][1]]]                                             
  H           6.591559             7.106330            -5.019845            0             0.031932    [1[6[8][1][1]]]                                             
  C           3.450812             6.522536            -2.033908            1             0.099454    [6[8[1]][1][1][1]]                                          
  O           4.501881             6.873083            -1.171610            1            -0.597823    [8[6[1][1][1]][1]]                                          
  H           5.252924             6.560564            -1.657881            1             0.402573    [1[8[6]]]                                                   
  H           3.163740             7.347433            -2.747425            1             0.031932    [1[6[8][1][1]]]                                             
  H           3.712419             5.630406            -2.509050            1             0.031932    [1[6[8][1][1]]]                                             
  H           2.634691             6.326015            -1.366200            1             0.031932    [1[6[8][1][1]]]                                             
