12

  C          -0.715228             1.050743             2.453242            0             0.099454    [6[8[1]][1][1][1]]                                          
  O          -1.854007             0.340821             2.144338            0            -0.597823    [8[6[1][1][1]][1]]                                          
  H          -2.633239             0.803480             2.639829            0             0.402573    [1[8[6]]]                                                   
  H          -0.871798             2.130612             2.284487            0             0.031932    [1[6[8][1][1]]]                                             
  H          -0.449429             0.971583             3.539397            0             0.031932    [1[6[8][1][1]]]                                             
  H           0.102194             0.804007             1.757111            0             0.031932    [1[6[8][1][1]]]                                             
  C           0.183462             0.452977             6.161411            1             0.099454    [6[8[1]][1][1][1]]                                          
  O           0.088514             1.558360             6.965881            1            -0.597823    [8[6[1][1][1]][1]]                                          
  H           0.995912             1.881266             7.136302            1             0.402573    [1[8[6]]]                                                   
  H          -0.781948             0.267522             5.660353            1             0.031932    [1[6[8][1][1]]]                                             
  H           0.841849             0.636354             5.347028            1             0.031932    [1[6[8][1][1]]]                                             
  H           0.628040            -0.451358             6.668737            1             0.031932    [1[6[8][1][1]]]                                             
