12

  C          -5.155608             4.448761             6.495203            0             0.099454    [6[8[1]][1][1][1]]                                          
  O          -4.963587             4.813747             5.143795            0            -0.597823    [8[6[1][1][1]][1]]                                          
  H          -4.164699             5.306233             4.967387            0             0.402573    [1[8[6]]]                                                   
  H          -5.003782             5.333135             7.120820            0             0.031932    [1[6[8][1][1]]]                                             
  H          -6.091171             3.966939             6.766882            0             0.031932    [1[6[8][1][1]]]                                             
  H          -4.363425             3.691716             6.857259            0             0.031932    [1[6[8][1][1]]]                                             
  C          -1.590801             5.259536             5.444712            1             0.099454    [6[8[1]][1][1][1]]                                          
  O          -2.579005             6.075560             5.969634            1            -0.597823    [8[6[1][1][1]][1]]                                          
  H          -2.371255             6.166465             6.898647            1             0.402573    [1[8[6]]]                                                   
  H          -0.617165             5.294617             6.040935            1             0.031932    [1[6[8][1][1]]]                                             
  H          -1.920685             4.210477             5.363840            1             0.031932    [1[6[8][1][1]]]                                             
  H          -1.254184             5.604891             4.450927            1             0.031932    [1[6[8][1][1]]]                                             
