6
Indices: 0 1 2 3 4 5
C             3.01138643110834    -1.18074069503720     0.59839534343221    [6[8[1]][1][1][1]]
O             4.39475174544977    -1.12789356267162     0.87421104686810    [8[6[1][1][1]][1]]
H             4.77211714736005    -0.37917832816440     0.41258956607860    [1[8[6]]]
H             2.80651313305826    -1.31880842124619    -0.46944612833785    [1[6[8][1][1]]]
H             2.61171091158336    -2.04010852279208     1.13580190579127    [1[6[8][1][1]]]
H             2.48483604974801    -0.28433466154564     0.94556242298866    [1[6[8][1][1]]]
