12

  C           10.999349           -5.266649            -1.319768            0             0.099454    [6[8[1]][1][1][1]]                                          
  O           11.616505           -5.919857            -0.228641            0            -0.597823    [8[6[1][1][1]][1]]                                          
  H           10.790786           -6.069596             0.322672            0             0.402573    [1[8[6]]]                                                   
  H           11.675425           -4.939022            -2.153195            0             0.031932    [1[6[8][1][1]]]                                             
  H           10.217054           -5.852464            -1.723310            0             0.031932    [1[6[8][1][1]]]                                             
  H           10.436245           -4.378384            -0.978400            0             0.031932    [1[6[8][1][1]]]                                             
  C           6.922900            -5.556759             0.074989            1             0.099454    [6[8[1]][1][1][1]]                                          
  O           8.298759            -5.505430             0.194279            1            -0.597823    [8[6[1][1][1]][1]]                                          
  H           8.562982            -6.410591             0.330391            1             0.402573    [1[8[6]]]                                                   
  H           6.585637            -5.093060            -0.834594            1             0.031932    [1[6[8][1][1]]]                                             
  H           6.477739            -6.565026             0.095750            1             0.031932    [1[6[8][1][1]]]                                             
  H           6.474502            -4.883424             0.848829            1             0.031932    [1[6[8][1][1]]]                                             
