12

  C          -3.235452             7.974834            -3.610997            0             0.099454    [6[8[1]][1][1][1]]                                          
  O          -2.335744             9.037216            -3.968717            0            -0.597823    [8[6[1][1][1]][1]]                                          
  H          -2.699700             9.576640            -4.691973            0             0.402573    [1[8[6]]]                                                   
  H          -3.591304             8.059104            -2.564382            0             0.031932    [1[6[8][1][1]]]                                             
  H          -4.201722             8.035616            -4.246307            0             0.031932    [1[6[8][1][1]]]                                             
  H          -2.818901             6.977032            -3.763111            0             0.031932    [1[6[8][1][1]]]                                             
  C          -5.583380             10.547708           -4.794975            1             0.099454    [6[8[1]][1][1][1]]                                          
  O          -4.322914             10.563281           -5.290126            1            -0.597823    [8[6[1][1][1]][1]]                                          
  H          -4.382848             10.627977           -6.245043            1             0.402573    [1[8[6]]]                                                   
  H          -5.522878             10.291070           -3.754556            1             0.031932    [1[6[8][1][1]]]                                             
  H          -5.904439             11.575678           -4.861461            1             0.031932    [1[6[8][1][1]]]                                             
  H          -6.284927             9.842735            -5.113026            1             0.031932    [1[6[8][1][1]]]                                             
