12

  C           3.771709             8.520026            -2.309033            0             0.099454    [6[8[1]][1][1][1]]                                          
  O           4.367163             8.443631            -3.620214            0            -0.597823    [8[6[1][1][1]][1]]                                          
  H           5.116592             9.031496            -3.647781            0             0.402573    [1[8[6]]]                                                   
  H           3.720613             9.562944            -1.984320            0             0.031932    [1[6[8][1][1]]]                                             
  H           2.808419             8.065377            -2.246526            0             0.031932    [1[6[8][1][1]]]                                             
  H           4.336444             7.999039            -1.611922            0             0.031932    [1[6[8][1][1]]]                                             
  C           3.499586             8.319768            -7.141324            1             0.099454    [6[8[1]][1][1][1]]                                          
  O           2.321511             8.924710            -6.484986            1            -0.597823    [8[6[1][1][1]][1]]                                          
  H           2.518691             9.534076            -5.769485            1             0.402573    [1[8[6]]]                                                   
  H           3.785110             7.387685            -6.723798            1             0.031932    [1[6[8][1][1]]]                                             
  H           3.415933             8.256690            -8.169854            1             0.031932    [1[6[8][1][1]]]                                             
  H           4.386838             8.958711            -7.198337            1             0.031932    [1[6[8][1][1]]]                                             
