12

  C          -5.673843             9.678529             0.887699            0             0.099454    [6[8[1]][1][1][1]]                                          
  O          -5.079798             8.484025             1.211510            0            -0.597823    [8[6[1][1][1]][1]]                                          
  H          -4.231268             8.659638             1.607767            0             0.402573    [1[8[6]]]                                                   
  H          -5.775124             10.359576            1.647475            0             0.031932    [1[6[8][1][1]]]                                             
  H          -5.041630             10.146954            0.099919            0             0.031932    [1[6[8][1][1]]]                                             
  H          -6.710823             9.493351             0.457744            0             0.031932    [1[6[8][1][1]]]                                             
  C          -5.483037             7.300299            -1.008413            1             0.099454    [6[8[1]][1][1][1]]                                          
  O          -5.819396             8.662700            -0.637939            1            -0.597823    [8[6[1][1][1]][1]]                                          
  H          -6.117906             9.242234            -1.359859            1             0.402573    [1[8[6]]]                                                   
  H          -4.475292             7.022951            -0.745541            1             0.031932    [1[6[8][1][1]]]                                             
  H          -6.112279             6.623709            -0.355056            1             0.031932    [1[6[8][1][1]]]                                             
  H          -5.780481             6.976767            -2.064381            1             0.031932    [1[6[8][1][1]]]                                             
