12

  C          -4.390305            -7.853721            -8.340512            0             0.099454    [6[8[1]][1][1][1]]                                          
  O          -3.239923            -7.533643            -7.534374            0            -0.597823    [8[6[1][1][1]][1]]                                          
  H          -3.454352            -6.886440            -6.874207            0             0.402573    [1[8[6]]]                                                   
  H          -4.282908            -8.754104            -8.899500            0             0.031932    [1[6[8][1][1]]]                                             
  H          -5.215125            -8.003807            -7.642085            0             0.031932    [1[6[8][1][1]]]                                             
  H          -4.738968            -7.005567            -9.008015            0             0.031932    [1[6[8][1][1]]]                                             
  C          -4.225287            -9.509128            -3.946584            1             0.099454    [6[8[1]][1][1][1]]                                          
  O          -4.810577            -9.394818            -5.219701            1            -0.597823    [8[6[1][1][1]][1]]                                          
  H          -4.267590            -8.685789            -5.669393            1             0.402573    [1[8[6]]]                                                   
  H          -3.201929            -9.967774            -3.965152            1             0.031932    [1[6[8][1][1]]]                                             
  H          -4.104531            -8.511236            -3.536366            1             0.031932    [1[6[8][1][1]]]                                             
  H          -4.850558            -10.069945           -3.300331            1             0.031932    [1[6[8][1][1]]]                                             
