12

  C          -7.822597             1.089316             10.615063           0             0.099454    [6[8[1]][1][1][1]]                                          
  O          -8.579110             0.171024             11.426707           0            -0.597823    [8[6[1][1][1]][1]]                                          
  H          -9.266079            -0.089083             10.777624           0             0.402573    [1[8[6]]]                                                   
  H          -7.499782             0.617102             9.711597            0             0.031932    [1[6[8][1][1]]]                                             
  H          -8.479123             1.922696             10.343100           0             0.031932    [1[6[8][1][1]]]                                             
  H          -6.830121             1.278858             11.089223           0             0.031932    [1[6[8][1][1]]]                                             
  C          -11.019096           -1.306331             9.423019            1             0.099454    [6[8[1]][1][1][1]]                                          
  O          -10.503379           -0.012999             9.587634            1            -0.597823    [8[6[1][1][1]][1]]                                          
  H          -10.647649            0.485361             8.784333            1             0.402573    [1[8[6]]]                                                   
  H          -11.145676           -1.523060             8.374772            1             0.031932    [1[6[8][1][1]]]                                             
  H          -10.302011           -2.070106             9.755812            1             0.031932    [1[6[8][1][1]]]                                             
  H          -11.940407           -1.438613             10.028585           1             0.031932    [1[6[8][1][1]]]                                             
