12

  C          -1.552654            -0.347999             4.263472            0             0.099454    [6[8[1]][1][1][1]]                                          
  O          -0.675985            -0.786314             3.238730            0            -0.597823    [8[6[1][1][1]][1]]                                          
  H          -1.311521            -0.903148             2.507645            0             0.402573    [1[8[6]]]                                                   
  H          -1.893925             0.644904             3.934240            0             0.031932    [1[6[8][1][1]]]                                             
  H          -2.420135            -0.936720             4.503697            0             0.031932    [1[6[8][1][1]]]                                             
  H          -1.047543            -0.169033             5.200596            0             0.031932    [1[6[8][1][1]]]                                             
  C          -2.167442            -4.172124             2.911363            1             0.099454    [6[8[1]][1][1][1]]                                          
  O          -2.828377            -4.368661             1.639484            1            -0.597823    [8[6[1][1][1]][1]]                                          
  H          -2.790449            -3.505690             1.160088            1             0.402573    [1[8[6]]]                                                   
  H          -2.644157            -4.729153             3.725452            1             0.031932    [1[6[8][1][1]]]                                             
  H          -1.142019            -4.560052             2.870684            1             0.031932    [1[6[8][1][1]]]                                             
  H          -2.121195            -3.082362             3.157849            1             0.031932    [1[6[8][1][1]]]                                             
