12

  C          -5.195719            -0.427144             9.365506            0             0.099454    [6[8[1]][1][1][1]]                                          
  O          -6.124433            -1.080566             10.163934           0            -0.597823    [8[6[1][1][1]][1]]                                          
  H          -6.539004            -1.747450             9.631112            0             0.402573    [1[8[6]]]                                                   
  H          -5.596017            -0.049719             8.423426            0             0.031932    [1[6[8][1][1]]]                                             
  H          -4.831508             0.366167             9.977338            0             0.031932    [1[6[8][1][1]]]                                             
  H          -4.342301            -1.112926             9.156067            0             0.031932    [1[6[8][1][1]]]                                             
  C          -11.363998           -3.873958             9.621631            1             0.099454    [6[8[1]][1][1][1]]                                          
  O          -10.723983           -2.588427             9.547147            1            -0.597823    [8[6[1][1][1]][1]]                                          
  H          -9.984691            -2.669052             10.130826           1             0.402573    [1[8[6]]]                                                   
  H          -12.338268           -3.825835             9.103518            1             0.031932    [1[6[8][1][1]]]                                             
  H          -10.840200           -4.669868             9.103864            1             0.031932    [1[6[8][1][1]]]                                             
  H          -11.617321           -4.148152             10.621722           1             0.031932    [1[6[8][1][1]]]                                             
