12

  C           6.774995            -8.324252            -6.953877            0             0.099454    [6[8[1]][1][1][1]]                                          
  O           7.881105            -8.521997            -6.079112            0            -0.597823    [8[6[1][1][1]][1]]                                          
  H           7.517149            -8.829247            -5.213137            0             0.402573    [1[8[6]]]                                                   
  H           6.347906            -9.271718            -7.258913            0             0.031932    [1[6[8][1][1]]]                                             
  H           6.000089            -7.780573            -6.407686            0             0.031932    [1[6[8][1][1]]]                                             
  H           7.153695            -7.866640            -7.863631            0             0.031932    [1[6[8][1][1]]]                                             
  C           3.723239            -6.692821            -8.760477            1             0.099454    [6[8[1]][1][1][1]]                                          
  O           3.185939            -5.527655            -9.330181            1            -0.597823    [8[6[1][1][1]][1]]                                          
  H           3.744187            -4.915721            -8.978648            1             0.402573    [1[8[6]]]                                                   
  H           3.260517            -7.605005            -9.008750            1             0.031932    [1[6[8][1][1]]]                                             
  H           4.674823            -6.827684            -9.229260            1             0.031932    [1[6[8][1][1]]]                                             
  H           3.823359            -6.584099            -7.650644            1             0.031932    [1[6[8][1][1]]]                                             
