10

C -0.52672000           0.02899000          -0.02984000         
C -0.15189000          -0.49176000          -1.41247000         
S -2.18722000           0.76890000          -0.08140000         
H  0.20714000           0.80434000           0.27815000         
H -0.52822000          -0.81751000           0.68988000         
H -2.14988000           1.10338000           1.28556000         
S  1.50894000          -1.23094000          -1.36109000         
H -0.15067000           0.35485000          -2.13207000         
H -0.88549000          -1.26730000          -1.72056000         
H  1.47481000          -1.55834000          -2.72985000         
