12

  C           6.579677            -4.656054             2.098122            0             0.099454    [6[8[1]][1][1][1]]                                          
  O           6.418017            -5.253259             3.379541            0            -0.597823    [8[6[1][1][1]][1]]                                          
  H           5.507121            -5.599913             3.333520            0             0.402573    [1[8[6]]]                                                   
  H           5.924402            -3.782596             1.864666            0             0.031932    [1[6[8][1][1]]]                                             
  H           7.523478            -4.087973             1.999012            0             0.031932    [1[6[8][1][1]]]                                             
  H           6.439044            -5.427651             1.315982            0             0.031932    [1[6[8][1][1]]]                                             
  C           4.431725            -7.665055             2.090697            1             0.099454    [6[8[1]][1][1][1]]                                          
  O           3.952023            -6.491349             1.410912            1            -0.597823    [8[6[1][1][1]][1]]                                          
  H           3.328230            -6.798843             0.777364            1             0.402573    [1[8[6]]]                                                   
  H           4.780630            -7.528567             3.165821            1             0.031932    [1[6[8][1][1]]]                                             
  H           3.676790            -8.425385             2.224436            1             0.031932    [1[6[8][1][1]]]                                             
  H           5.257846            -8.104573             1.525051            1             0.031932    [1[6[8][1][1]]]                                             
