12

  C          -6.083136             5.885562             7.272078            0             0.099454    [6[8[1]][1][1][1]]                                          
  O          -5.275935             6.974609             7.448054            0            -0.597823    [8[6[1][1][1]][1]]                                          
  H          -4.771461             7.052453             6.604360            0             0.402573    [1[8[6]]]                                                   
  H          -6.995972             5.890797             7.959285            0             0.031932    [1[6[8][1][1]]]                                             
  H          -6.525911             5.758707             6.203153            0             0.031932    [1[6[8][1][1]]]                                             
  H          -5.455596             4.991916             7.471403            0             0.031932    [1[6[8][1][1]]]                                             
  C          -6.157454             10.005180            5.000635            1             0.099454    [6[8[1]][1][1][1]]                                          
  O          -7.012671             9.226287             4.226335            1            -0.597823    [8[6[1][1][1]][1]]                                          
  H          -6.640607             8.534934             3.691516            1             0.402573    [1[8[6]]]                                                   
  H          -5.172978             10.178861            4.437589            1             0.031932    [1[6[8][1][1]]]                                             
  H          -6.692269             10.953788            5.047580            1             0.031932    [1[6[8][1][1]]]                                             
  H          -5.897147             9.620161             5.962352            1             0.031932    [1[6[8][1][1]]]                                             
