12

  C           7.333057            -2.430812             1.645789            0             0.099454    [6[8[1]][1][1][1]]                                          
  O           8.150928            -3.348863             2.355897            0            -0.597823    [8[6[1][1][1]][1]]                                          
  H           7.901100            -4.245522             2.122352            0             0.402573    [1[8[6]]]                                                   
  H           7.599919            -2.293833             0.620857            0             0.031932    [1[6[8][1][1]]]                                             
  H           6.249450            -2.648835             1.741102            0             0.031932    [1[6[8][1][1]]]                                             
  H           7.518582            -1.423774             2.056502            0             0.031932    [1[6[8][1][1]]]                                             
  C           8.791782            -0.730577             4.408944            1             0.099454    [6[8[1]][1][1][1]]                                          
  O           9.268081            -2.081288             4.514631            1            -0.597823    [8[6[1][1][1]][1]]                                          
  H           8.682510            -2.631129             4.036008            1             0.402573    [1[8[6]]]                                                   
  H           8.956816            -0.301256             3.481077            1             0.031932    [1[6[8][1][1]]]                                             
  H           7.728045            -0.609651             4.653355            1             0.031932    [1[6[8][1][1]]]                                             
  H           9.286766            -0.091580             5.141704            1             0.031932    [1[6[8][1][1]]]                                             
