12

  C          -10.729189            10.556752           -1.549944            0             0.099454    [6[8[1]][1][1][1]]                                          
  O          -9.844536             9.442152            -1.851716            0            -0.597823    [8[6[1][1][1]][1]]                                          
  H          -10.201714            8.818743            -2.561734            0             0.402573    [1[8[6]]]                                                   
  H          -10.139782            11.504818           -1.443811            0             0.031932    [1[6[8][1][1]]]                                             
  H          -11.550536            10.656616           -2.308718            0             0.031932    [1[6[8][1][1]]]                                             
  H          -11.116407            10.345038           -0.564643            0             0.031932    [1[6[8][1][1]]]                                             
  C          -9.735061             9.127532             1.902618            1             0.099454    [6[8[1]][1][1][1]]                                          
  O          -10.575173            8.061149             2.117928            1            -0.597823    [8[6[1][1][1]][1]]                                          
  H          -11.392781            8.475786             2.329030            1             0.402573    [1[8[6]]]                                                   
  H          -9.380171             9.674551             2.818954            1             0.031932    [1[6[8][1][1]]]                                             
  H          -8.769175             8.873702             1.422123            1             0.031932    [1[6[8][1][1]]]                                             
  H          -10.173202            9.855522             1.233516            1             0.031932    [1[6[8][1][1]]]                                             
