12

  C           8.855435             2.500085            -1.398292            0             0.099454    [6[8[1]][1][1][1]]                                          
  O           8.460156             1.355056            -0.672985            0            -0.597823    [8[6[1][1][1]][1]]                                          
  H           9.255421             1.118995            -0.121987            0             0.402573    [1[8[6]]]                                                   
  H           9.214119             3.364614            -0.741264            0             0.031932    [1[6[8][1][1]]]                                             
  H           9.646805             2.202095            -2.062144            0             0.031932    [1[6[8][1][1]]]                                             
  H           8.024161             2.826217            -2.019382            0             0.031932    [1[6[8][1][1]]]                                             
  C           6.624628            -1.506065            -1.054187            1             0.099454    [6[8[1]][1][1][1]]                                          
  O           6.957913            -0.603758            -2.205478            1            -0.597823    [8[6[1][1][1]][1]]                                          
  H           7.370634             0.127094            -1.750835            1             0.402573    [1[8[6]]]                                                   
  H           6.052537            -2.386081            -1.443311            1             0.031932    [1[6[8][1][1]]]                                             
  H           7.530829            -1.759729            -0.486789            1             0.031932    [1[6[8][1][1]]]                                             
  H           5.917033            -1.019523            -0.316188            1             0.031932    [1[6[8][1][1]]]                                             
