12

  C           3.247449             0.489047             6.955197            0             0.099454    [6[8[1]][1][1][1]]                                          
  O           3.339960             1.502602             5.982111            0            -0.597823    [8[6[1][1][1]][1]]                                          
  H           2.459960             1.640455             5.585835            0             0.402573    [1[8[6]]]                                                   
  H           2.534463             0.868375             7.717436            0             0.031932    [1[6[8][1][1]]]                                             
  H           2.934831            -0.454493             6.529917            0             0.031932    [1[6[8][1][1]]]                                             
  H           4.259433             0.461948             7.314150            0             0.031932    [1[6[8][1][1]]]                                             
  C           0.794844             5.585761             5.034224            1             0.099454    [6[8[1]][1][1][1]]                                          
  O           0.764898             4.962424             3.767976            1            -0.597823    [8[6[1][1][1]][1]]                                          
  H           1.396828             4.241649             3.749836            1             0.402573    [1[8[6]]]                                                   
  H           0.183799             6.494684             4.973592            1             0.031932    [1[6[8][1][1]]]                                             
  H           0.403332             4.896322             5.844179            1             0.031932    [1[6[8][1][1]]]                                             
  H           1.791000             5.834054             5.307899            1             0.031932    [1[6[8][1][1]]]                                             
