12

  C          -0.584460             9.833385            -7.370606            0             0.099454    [6[8[1]][1][1][1]]                                          
  O           0.262817             9.973202            -6.259486            0            -0.597823    [8[6[1][1][1]][1]]                                          
  H          -0.083268             10.436978           -5.479950            0             0.402573    [1[8[6]]]                                                   
  H          -1.227082             10.668618           -7.422794            0             0.031932    [1[6[8][1][1]]]                                             
  H           0.023229             9.743565            -8.282138            0             0.031932    [1[6[8][1][1]]]                                             
  H          -1.232432             8.935795            -7.342917            0             0.031932    [1[6[8][1][1]]]                                             
  C          -5.353303             11.069871           -8.863530            1             0.099454    [6[8[1]][1][1][1]]                                          
  O          -6.223960             10.129537           -9.440476            1            -0.597823    [8[6[1][1][1]][1]]                                          
  H          -7.113445             10.492733           -9.573066            1             0.402573    [1[8[6]]]                                                   
  H          -5.404248             12.067274           -9.320768            1             0.031932    [1[6[8][1][1]]]                                             
  H          -5.585512             11.032351           -7.805065            1             0.031932    [1[6[8][1][1]]]                                             
  H          -4.332795             10.687860           -8.945880            1             0.031932    [1[6[8][1][1]]]                                             
