12

  C          -3.148170             5.526536             0.250592            0             0.099454    [6[8[1]][1][1][1]]                                          
  O          -4.122243             6.461500             0.653780            0            -0.597823    [8[6[1][1][1]][1]]                                          
  H          -4.972779             6.142392             0.328687            0             0.402573    [1[8[6]]]                                                   
  H          -2.964292             5.774731            -0.804132            0             0.031932    [1[6[8][1][1]]]                                             
  H          -2.171916             5.713092             0.804986            0             0.031932    [1[6[8][1][1]]]                                             
  H          -3.408570             4.525718             0.398298            0             0.031932    [1[6[8][1][1]]]                                             
  C          -5.235882             3.625782             3.629223            1             0.099454    [6[8[1]][1][1][1]]                                          
  O          -5.157352             3.575601             2.260142            1            -0.597823    [8[6[1][1][1]][1]]                                          
  H          -5.339816             4.474139             1.905838            1             0.402573    [1[8[6]]]                                                   
  H          -4.746919             2.763487             4.126884            1             0.031932    [1[6[8][1][1]]]                                             
  H          -4.722941             4.481456             4.022618            1             0.031932    [1[6[8][1][1]]]                                             
  H          -6.300535             3.639498             3.943306            1             0.031932    [1[6[8][1][1]]]                                             
