12

  C          -2.839955            -3.953407            -0.078150            0             0.099454    [6[8[1]][1][1][1]]                                          
  O          -2.008247            -2.946951             0.371114            0            -0.597823    [8[6[1][1][1]][1]]                                          
  H          -2.187683            -2.219467            -0.178250            0             0.402573    [1[8[6]]]                                                   
  H          -3.058394            -3.772306            -1.120352            0             0.031932    [1[6[8][1][1]]]                                             
  H          -2.431864            -4.948480             0.016022            0             0.031932    [1[6[8][1][1]]]                                             
  H          -3.792097            -3.920621             0.402216            0             0.031932    [1[6[8][1][1]]]                                             
  C           1.310005            -5.374597             1.050134            1             0.099454    [6[8[1]][1][1][1]]                                          
  O           2.401512            -6.320147             0.794165            1            -0.597823    [8[6[1][1][1]][1]]                                          
  H           2.409136            -7.072881             1.458004            1             0.402573    [1[8[6]]]                                                   
  H           0.288380            -5.856881             0.838766            1             0.031932    [1[6[8][1][1]]]                                             
  H           1.226147            -4.946307             2.050724            1             0.031932    [1[6[8][1][1]]]                                             
  H           1.364170            -4.525090             0.270397            1             0.031932    [1[6[8][1][1]]]                                             
