12

  C           8.643484            -10.596535            3.469221            0             0.099454    [6[8[1]][1][1][1]]                                          
  O           8.955716            -10.854942            2.119081            0            -0.597823    [8[6[1][1][1]][1]]                                          
  H           9.117032            -9.999848             1.707795            0             0.402573    [1[8[6]]]                                                   
  H           9.382769            -10.096657            4.085668            0             0.031932    [1[6[8][1][1]]]                                             
  H           7.796566            -9.991265             3.549302            0             0.031932    [1[6[8][1][1]]]                                             
  H           8.301989            -11.458165            3.995973            0             0.031932    [1[6[8][1][1]]]                                             
  C           9.202785            -6.005696             3.073275            1             0.099454    [6[8[1]][1][1][1]]                                          
  O           8.958415            -7.193723             3.871641            1            -0.597823    [8[6[1][1][1]][1]]                                          
  H           8.027412            -7.454308             3.797882            1             0.402573    [1[8[6]]]                                                   
  H           9.139643            -6.243452             2.007380            1             0.031932    [1[6[8][1][1]]]                                             
  H           8.391360            -5.319012             3.253768            1             0.031932    [1[6[8][1][1]]]                                             
  H           10.098898           -5.548324             3.361159            1             0.031932    [1[6[8][1][1]]]                                             
