12

  C          -9.948473            -1.812941             5.438624            0             0.099454    [6[8[1]][1][1][1]]                                          
  O          -9.656483            -1.904055             6.869065            0            -0.597823    [8[6[1][1][1]][1]]                                          
  H          -8.898172            -2.436655             7.042660            0             0.402573    [1[8[6]]]                                                   
  H          -10.795136           -1.169837             5.194730            0             0.031932    [1[6[8][1][1]]]                                             
  H          -9.039130            -1.454169             4.871001            0             0.031932    [1[6[8][1][1]]]                                             
  H          -10.203844           -2.769139             4.921275            0             0.031932    [1[6[8][1][1]]]                                             
  C          -8.326062             2.645754             3.193357            1             0.099454    [6[8[1]][1][1][1]]                                          
  O          -9.471380             1.834753             3.573380            1            -0.597823    [8[6[1][1][1]][1]]                                          
  H          -9.147680             1.019631             3.952367            1             0.402573    [1[8[6]]]                                                   
  H          -8.261319             2.762300             2.108534            1             0.031932    [1[6[8][1][1]]]                                             
  H          -8.453512             3.660884             3.527145            1             0.031932    [1[6[8][1][1]]]                                             
  H          -7.380208             2.241632             3.505309            1             0.031932    [1[6[8][1][1]]]                                             
