12

  C           3.051319             10.744531           -1.095731            0             0.099454    [6[8[1]][1][1][1]]                                          
  O           4.041918             9.795528            -1.066697            0            -0.597823    [8[6[1][1][1]][1]]                                          
  H           3.695005             9.045905            -1.508227            0             0.402573    [1[8[6]]]                                                   
  H           2.823380             11.193484           -2.079917            0             0.031932    [1[6[8][1][1]]]                                             
  H           2.116573             10.257582           -0.937231            0             0.031932    [1[6[8][1][1]]]                                             
  H           3.298022             11.551580           -0.358631            0             0.031932    [1[6[8][1][1]]]                                             
  C           6.954746             7.491548             2.890849            1             0.099454    [6[8[1]][1][1][1]]                                          
  O           6.315243             6.971353             1.717059            1            -0.597823    [8[6[1][1][1]][1]]                                          
  H           5.920077             7.735909             1.324826            1             0.402573    [1[8[6]]]                                                   
  H           7.605254             6.722106             3.359889            1             0.031932    [1[6[8][1][1]]]                                             
  H           7.647488             8.305513             2.508878            1             0.031932    [1[6[8][1][1]]]                                             
  H           6.250953             7.862724             3.602146            1             0.031932    [1[6[8][1][1]]]                                             
