12

  C           5.076919            -10.100200           -4.491884            0             0.099454    [6[8[1]][1][1][1]]                                          
  O           4.875564            -8.751591            -4.271763            0            -0.597823    [8[6[1][1][1]][1]]                                          
  H           5.776038            -8.429535            -4.025102            0             0.402573    [1[8[6]]]                                                   
  H           4.079127            -10.597135           -4.605720            0             0.031932    [1[6[8][1][1]]]                                             
  H           5.674618            -10.291725           -5.409982            0             0.031932    [1[6[8][1][1]]]                                             
  H           5.579315            -10.598143           -3.609433            0             0.031932    [1[6[8][1][1]]]                                             
  C           1.939360            -9.035453            -7.082805            1             0.099454    [6[8[1]][1][1][1]]                                          
  O           3.045270            -8.165502            -7.097040            1            -0.597823    [8[6[1][1][1]][1]]                                          
  H           3.112391            -7.736880            -6.215927            1             0.402573    [1[8[6]]]                                                   
  H           1.745708            -9.488842            -6.117196            1             0.031932    [1[6[8][1][1]]]                                             
  H           0.983521            -8.509977            -7.267819            1             0.031932    [1[6[8][1][1]]]                                             
  H           2.094026            -9.756410            -7.788334            1             0.031932    [1[6[8][1][1]]]                                             
