12

  C          -4.288569            -3.454093             4.046615            0             0.099454    [6[8[1]][1][1][1]]                                          
  O          -4.072984            -3.445141             5.450072            0            -0.597823    [8[6[1][1][1]][1]]                                          
  H          -3.608082            -2.611545             5.566733            0             0.402573    [1[8[6]]]                                                   
  H          -3.328369            -3.735090             3.527382            0             0.031932    [1[6[8][1][1]]]                                             
  H          -4.996269            -4.232074             3.685555            0             0.031932    [1[6[8][1][1]]]                                             
  H          -4.566862            -2.490800             3.649591            0             0.031932    [1[6[8][1][1]]]                                             
  C          -4.649841             0.488223             2.777352            1             0.099454    [6[8[1]][1][1][1]]                                          
  O          -5.030796             0.734548             1.408729            1            -0.597823    [8[6[1][1][1]][1]]                                          
  H          -4.503979             0.247009             0.766835            1             0.402573    [1[8[6]]]                                                   
  H          -5.304745             1.060699             3.458609            1             0.031932    [1[6[8][1][1]]]                                             
  H          -4.711368            -0.565186             3.079461            1             0.031932    [1[6[8][1][1]]]                                             
  H          -3.647727             0.894904             3.033890            1             0.031932    [1[6[8][1][1]]]                                             
