12

  C          -2.012563             4.665636            -1.975602            0             0.099454    [6[8[1]][1][1][1]]                                          
  O          -2.587163             3.443356            -2.387225            0            -0.597823    [8[6[1][1][1]][1]]                                          
  H          -2.699769             2.832937            -1.683804            0             0.402573    [1[8[6]]]                                                   
  H          -1.104865             4.452574            -1.373677            0             0.031932    [1[6[8][1][1]]]                                             
  H          -1.693675             5.183946            -2.882772            0             0.031932    [1[6[8][1][1]]]                                             
  H          -2.766827             5.318061            -1.491630            0             0.031932    [1[6[8][1][1]]]                                             
  C           1.636724             3.135065             2.117009            1             0.099454    [6[8[1]][1][1][1]]                                          
  O           2.604797             4.134345             2.105509            1            -0.597823    [8[6[1][1][1]][1]]                                          
  H           3.121479             4.067333             1.366747            1             0.402573    [1[8[6]]]                                                   
  H           0.710944             3.498242             1.633896            1             0.031932    [1[6[8][1][1]]]                                             
  H           2.003399             2.198922             1.581749            1             0.031932    [1[6[8][1][1]]]                                             
  H           1.507178             2.963489             3.155185            1             0.031932    [1[6[8][1][1]]]                                             
