12

  C           5.359301            -8.372943            -9.649824            0             0.099454    [6[8[1]][1][1][1]]                                          
  O           6.654829            -8.198654            -9.020387            0            -0.597823    [8[6[1][1][1]][1]]                                          
  H           6.531283            -8.582992            -8.153111            0             0.402573    [1[8[6]]]                                                   
  H           4.948744            -9.385095            -9.563094            0             0.031932    [1[6[8][1][1]]]                                             
  H           4.603484            -7.606381            -9.326096            0             0.031932    [1[6[8][1][1]]]                                             
  H           5.413240            -8.249904            -10.710803           0             0.031932    [1[6[8][1][1]]]                                             
  C           7.717335            -11.016342           -6.648886            1             0.099454    [6[8[1]][1][1][1]]                                          
  O           6.948106            -9.839205            -6.598699            1            -0.597823    [8[6[1][1][1]][1]]                                          
  H           5.965727            -10.006760           -6.507486            1             0.402573    [1[8[6]]]                                                   
  H           7.595240            -11.582867           -7.607231            1             0.031932    [1[6[8][1][1]]]                                             
  H           8.831074            -10.817666           -6.589294            1             0.031932    [1[6[8][1][1]]]                                             
  H           7.444850            -11.642226           -5.774066            1             0.031932    [1[6[8][1][1]]]                                             
