12

  C          -6.064627             7.188321            -11.432468           0             0.099454    [6[8[1]][1][1][1]]                                          
  O          -5.788437             7.373492            -10.093867           0            -0.597823    [8[6[1][1][1]][1]]                                          
  H          -4.872446             7.602528            -10.077802           0             0.402573    [1[8[6]]]                                                   
  H          -7.156699             7.111076            -11.643021           0             0.031932    [1[6[8][1][1]]]                                             
  H          -5.706428             8.024415            -11.995838           0             0.031932    [1[6[8][1][1]]]                                             
  H          -5.650287             6.228816            -11.865128           0             0.031932    [1[6[8][1][1]]]                                             
  C          -6.210408             7.186349            -6.347533            1             0.099454    [6[8[1]][1][1][1]]                                          
  O          -6.337280             8.254765            -7.246706            1            -0.597823    [8[6[1][1][1]][1]]                                          
  H          -6.561061             7.790520            -8.089679            1             0.402573    [1[8[6]]]                                                   
  H          -6.987174             6.395478            -6.449828            1             0.031932    [1[6[8][1][1]]]                                             
  H          -5.291814             6.642553            -6.432559            1             0.031932    [1[6[8][1][1]]]                                             
  H          -6.203094             7.509204            -5.298534            1             0.031932    [1[6[8][1][1]]]                                             
