6

  C           6.136890             4.513762             6.511239            0             0.089063    [6[8[1]][1][1][1]]                                          
  O           6.341691             4.452216             5.096472            0            -0.604789    [8[6[1][1][1]][1]]                                          
  H           7.227315             4.174487             5.012936            0             0.406250    [1[8[6]]]                                                   
  H           6.621024             3.648944             7.024267            0             0.036492    [1[6[8][1][1]]]                                             
  H           6.603303             5.385847             6.873901            0             0.036492    [1[6[8][1][1]]]                                             
  H           5.124384             4.700633             6.804220            0             0.036492    [1[6[8][1][1]]]                                             
