12

  C          -3.298790            -3.261726            -5.806009            0             0.099454    [6[8[1]][1][1][1]]                                          
  O          -2.323678            -3.800694            -6.630534            0            -0.597823    [8[6[1][1][1]][1]]                                          
  H          -2.343861            -3.387255            -7.476994            0             0.402573    [1[8[6]]]                                                   
  H          -2.987311            -2.325919            -5.315744            0             0.031932    [1[6[8][1][1]]]                                             
  H          -4.237736            -3.025110            -6.254356            0             0.031932    [1[6[8][1][1]]]                                             
  H          -3.616633            -3.976953            -5.027807            0             0.031932    [1[6[8][1][1]]]                                             
  C          -0.754769            -1.422631            -9.306047            1             0.099454    [6[8[1]][1][1][1]]                                          
  O          -1.310124            -2.712683            -9.086233            1            -0.597823    [8[6[1][1][1]][1]]                                          
  H          -1.951903            -2.836514            -9.786444            1             0.402573    [1[8[6]]]                                                   
  H          -0.309444            -0.936969            -8.370109            1             0.031932    [1[6[8][1][1]]]                                             
  H           0.081290            -1.454435            -10.056730           1             0.031932    [1[6[8][1][1]]]                                             
  H          -1.496361            -0.747542            -9.587582            1             0.031932    [1[6[8][1][1]]]                                             
