12

  C          -0.584460             9.833385            -7.370606            0             0.099454    [6[8[1]][1][1][1]]                                          
  O           0.262817             9.973202            -6.259486            0            -0.597823    [8[6[1][1][1]][1]]                                          
  H          -0.083268             10.436978           -5.479950            0             0.402573    [1[8[6]]]                                                   
  H          -1.227082             10.668618           -7.422794            0             0.031932    [1[6[8][1][1]]]                                             
  H           0.023229             9.743565            -8.282138            0             0.031932    [1[6[8][1][1]]]                                             
  H          -1.232432             8.935795            -7.342917            0             0.031932    [1[6[8][1][1]]]                                             
  C           3.447000             11.325444           -7.464187            1             0.099454    [6[8[1]][1][1][1]]                                          
  O           4.667945             11.339857           -8.145046            1            -0.597823    [8[6[1][1][1]][1]]                                          
  H           4.958023             10.445464           -8.080650            1             0.402573    [1[8[6]]]                                                   
  H           2.953880             10.359799           -7.670713            1             0.031932    [1[6[8][1][1]]]                                             
  H           3.497918             11.321321           -6.360221            1             0.031932    [1[6[8][1][1]]]                                             
  H           2.742022             12.057489           -7.841956            1             0.031932    [1[6[8][1][1]]]                                             
