12

  C          -5.822313             0.855547             3.318697            0             0.099454    [6[8[1]][1][1][1]]                                          
  O          -5.400111             0.443276             4.555475            0            -0.597823    [8[6[1][1][1]][1]]                                          
  H          -6.043504            -0.212960             4.935816            0             0.402573    [1[8[6]]]                                                   
  H          -5.987072             0.054597             2.640367            0             0.031932    [1[6[8][1][1]]]                                             
  H          -6.826729             1.497216             3.257010            0             0.031932    [1[6[8][1][1]]]                                             
  H          -5.089060             1.332691             2.752819            0             0.031932    [1[6[8][1][1]]]                                             
  C          -6.947420            -2.638629             6.020418            1             0.099454    [6[8[1]][1][1][1]]                                          
  O          -5.855976            -2.041525             5.479451            1            -0.597823    [8[6[1][1][1]][1]]                                          
  H          -5.253015            -2.692802             5.068501            1             0.402573    [1[8[6]]]                                                   
  H          -6.845005            -3.713180             5.835701            1             0.031932    [1[6[8][1][1]]]                                             
  H          -7.038232            -2.528567             7.063693            1             0.031932    [1[6[8][1][1]]]                                             
  H          -7.817227            -2.309417             5.550734            1             0.031932    [1[6[8][1][1]]]                                             
