12

  C           1.972360            -3.242380            -2.291110            0             0.099454    [6[8[1]][1][1][1]]                                          
  O           0.886188            -3.726054            -3.031860            0            -0.597823    [8[6[1][1][1]][1]]                                          
  H           0.164085            -3.641322            -2.396645            0             0.402573    [1[8[6]]]                                                   
  H           1.793747            -2.285866            -1.788684            0             0.031932    [1[6[8][1][1]]]                                             
  H           2.331288            -3.957920            -1.507135            0             0.031932    [1[6[8][1][1]]]                                             
  H           2.874275            -3.131901            -2.845409            0             0.031932    [1[6[8][1][1]]]                                             
  C           0.979808            -5.107879            -6.735443            1             0.099454    [6[8[1]][1][1][1]]                                          
  O           0.630532            -4.020765            -5.868321            1            -0.597823    [8[6[1][1][1]][1]]                                          
  H           0.928151            -4.133343            -4.936331            1             0.402573    [1[8[6]]]                                                   
  H           0.237377            -5.078983            -7.547852            1             0.031932    [1[6[8][1][1]]]                                             
  H           1.914179            -4.983240            -7.216080            1             0.031932    [1[6[8][1][1]]]                                             
  H           1.019916            -6.060295            -6.132887            1             0.031932    [1[6[8][1][1]]]                                             
