6

  C          -10.205816           -6.375469             1.365165            0             0.089063    [6[8[1]][1][1][1]]                                          
  O          -10.628494           -5.082935             0.853284            0            -0.604789    [8[6[1][1][1]][1]]                                          
  H          -10.789218           -5.226579            -0.071007            0             0.406250    [1[8[6]]]                                                   
  H          -10.901433           -7.165144             1.118339            0             0.036492    [1[6[8][1][1]]]                                             
  H          -9.202702            -6.719821             1.089578            0             0.036492    [1[6[8][1][1]]]                                             
  H          -10.100374           -6.365363             2.437959            0             0.036492    [1[6[8][1][1]]]                                             
