12

  C          -11.310636           -6.749428            -0.716338            0             0.099454    [6[8[1]][1][1][1]]                                          
  O          -10.161018           -6.596171             0.174576            0            -0.597823    [8[6[1][1][1]][1]]                                          
  H          -10.318668           -6.843313             1.117006            0             0.402573    [1[8[6]]]                                                   
  H          -11.063202           -6.918290            -1.771602            0             0.031932    [1[6[8][1][1]]]                                             
  H          -11.690728           -7.749996            -0.577357            0             0.031932    [1[6[8][1][1]]]                                             
  H          -12.139721           -6.115864            -0.581882            0             0.031932    [1[6[8][1][1]]]                                             
  C          -9.728342            -10.945972            0.598949            1             0.099454    [6[8[1]][1][1][1]]                                          
  O          -9.788501            -10.579924            1.967654            1            -0.597823    [8[6[1][1][1]][1]]                                          
  H          -9.245930            -11.151646            2.469019            1             0.402573    [1[8[6]]]                                                   
  H          -10.703401           -11.012628            0.111094            1             0.031932    [1[6[8][1][1]]]                                             
  H          -9.181283            -10.224568           -0.037611            1             0.031932    [1[6[8][1][1]]]                                             
  H          -9.093684            -11.862189            0.466489            1             0.031932    [1[6[8][1][1]]]                                             
