12

  C          -1.523092            -3.085054            -4.626806            0             0.099454    [6[8[1]][1][1][1]]                                          
  O          -0.408437            -2.272487            -4.951602            0            -0.597823    [8[6[1][1][1]][1]]                                          
  H          -0.333065            -2.187968            -5.897498            0             0.402573    [1[8[6]]]                                                   
  H          -1.220030            -4.200989            -4.574410            0             0.031932    [1[6[8][1][1]]]                                             
  H          -1.929081            -2.720365            -3.656074            0             0.031932    [1[6[8][1][1]]]                                             
  H          -2.337389            -2.885458            -5.353517            0             0.031932    [1[6[8][1][1]]]                                             
  C           0.454296             1.063015            -5.066884            1             0.099454    [6[8[1]][1][1][1]]                                          
  O           0.027373             1.018387            -6.371034            1            -0.597823    [8[6[1][1][1]][1]]                                          
  H          -0.179703             0.128811            -6.695658            1             0.402573    [1[8[6]]]                                                   
  H           1.451245             0.704450            -4.844679            1             0.031932    [1[6[8][1][1]]]                                             
  H           0.373348             2.132470            -4.849588            1             0.031932    [1[6[8][1][1]]]                                             
  H          -0.201784             0.501082            -4.370031            1             0.031932    [1[6[8][1][1]]]                                             
