12

  C          -8.550756             3.122368             3.230009            0             0.099454    [6[8[1]][1][1][1]]                                          
  O          -8.562572             2.964860             1.793958            0            -0.597823    [8[6[1][1][1]][1]]                                          
  H          -8.190921             3.761981             1.375839            0             0.402573    [1[8[6]]]                                                   
  H          -9.274297             2.452273             3.762807            0             0.031932    [1[6[8][1][1]]]                                             
  H          -7.574168             2.767367             3.602449            0             0.031932    [1[6[8][1][1]]]                                             
  H          -8.847867             4.108928             3.617314            0             0.031932    [1[6[8][1][1]]]                                             
  C          -9.392765            -0.768489             1.418927            1             0.099454    [6[8[1]][1][1][1]]                                          
  O          -10.623573           -0.821616             2.124947            1            -0.597823    [8[6[1][1][1]][1]]                                          
  H          -10.380854           -0.719384             3.083658            1             0.402573    [1[8[6]]]                                                   
  H          -9.581745            -1.070340             0.382746            1             0.031932    [1[6[8][1][1]]]                                             
  H          -8.940759             0.271909             1.384870            1             0.031932    [1[6[8][1][1]]]                                             
  H          -8.746655            -1.488014             1.879901            1             0.031932    [1[6[8][1][1]]]                                             
