6
Indices: 0 1 2 3 4 5
C             3.01130757653139    -1.18089714717292     0.59849180422696    [6[8[1]][1][1][1]]
O             4.39392998732599    -1.12251459340239     0.87690419828984    [8[6[1][1][1]][1]]
H             4.77219600193700    -0.37902187602868     0.41249310528385    [1[8[6]]]
H             2.80643427848131    -1.31896487338191    -0.46934966754310    [1[6[8][1][1]]]
H             2.61163205700641    -2.04026497492780     1.13589836658602    [1[6[8][1][1]]]
H             2.48888636115084    -0.28270781784070     0.94728409845461    [1[6[8][1][1]]]
