12

  C          -4.286633             7.826120             1.492004            0             0.099454    [6[8[1]][1][1][1]]                                          
  O          -5.094304             8.659068             2.319935            0            -0.597823    [8[6[1][1][1]][1]]                                          
  H          -6.047964             8.445136             2.344196            0             0.402573    [1[8[6]]]                                                   
  H          -4.777304             7.440605             0.628035            0             0.031932    [1[6[8][1][1]]]                                             
  H          -3.385954             8.291319             1.218376            0             0.031932    [1[6[8][1][1]]]                                             
  H          -3.951033             6.945951             1.997395            0             0.031932    [1[6[8][1][1]]]                                             
  C          -7.108575             6.913722            -0.857616            1             0.099454    [6[8[1]][1][1][1]]                                          
  O          -5.910933             6.151993            -0.758104            1            -0.597823    [8[6[1][1][1]][1]]                                          
  H          -6.108608             5.514156             0.021846            1             0.402573    [1[8[6]]]                                                   
  H          -8.052278             6.348833            -0.737678            1             0.031932    [1[6[8][1][1]]]                                             
  H          -7.212517             7.592448            -0.076732            1             0.031932    [1[6[8][1][1]]]                                             
  H          -7.252339             7.360240            -1.857203            1             0.031932    [1[6[8][1][1]]]                                             
