12

  C           0.659082             8.615269            -3.643497            0             0.099454    [6[8[1]][1][1][1]]                                          
  O           0.571755             9.841283            -3.042450            0            -0.597823    [8[6[1][1][1]][1]]                                          
  H           0.633439             10.539445           -3.712564            0             0.402573    [1[8[6]]]                                                   
  H           1.490287             8.549697            -4.355124            0             0.031932    [1[6[8][1][1]]]                                             
  H           0.762765             7.880298            -2.852222            0             0.031932    [1[6[8][1][1]]]                                             
  H          -0.254403             8.351689            -4.285406            0             0.031932    [1[6[8][1][1]]]                                             
  C           3.927429             5.685087            -3.144668            1             0.099454    [6[8[1]][1][1][1]]                                          
  O           3.911771             7.097495            -3.128143            1            -0.597823    [8[6[1][1][1]][1]]                                          
  H           4.365504             7.379704            -3.916981            1             0.402573    [1[8[6]]]                                                   
  H           3.390142             5.395169            -4.049428            1             0.031932    [1[6[8][1][1]]]                                             
  H           4.970226             5.248534            -3.229994            1             0.031932    [1[6[8][1][1]]]                                             
  H           3.351720             5.171865            -2.354126            1             0.031932    [1[6[8][1][1]]]                                             
