12

  C           11.272091           -7.066084             6.267247            0             0.099454    [6[8[1]][1][1][1]]                                          
  O           10.898826           -8.066207             7.160887            0            -0.597823    [8[6[1][1][1]][1]]                                          
  H           10.641213           -8.853591             6.664722            0             0.402573    [1[8[6]]]                                                   
  H           12.077260           -7.458743             5.579053            0             0.031932    [1[6[8][1][1]]]                                             
  H           10.399957           -6.648643             5.725783            0             0.031932    [1[6[8][1][1]]]                                             
  H           11.619419           -6.256369             6.893720            0             0.031932    [1[6[8][1][1]]]                                             
  C           6.764283            -9.797262             4.796798            1             0.099454    [6[8[1]][1][1][1]]                                          
  O           7.854235            -9.253086             5.558836            1            -0.597823    [8[6[1][1][1]][1]]                                          
  H           8.440373            -8.669675             5.044567            1             0.402573    [1[8[6]]]                                                   
  H           6.126712            -10.337744            5.499328            1             0.031932    [1[6[8][1][1]]]                                             
  H           6.264568            -8.981207             4.208230            1             0.031932    [1[6[8][1][1]]]                                             
  H           7.082795            -10.555114            4.057515            1             0.031932    [1[6[8][1][1]]]                                             
