12

  C           3.937609             6.089715             5.121929            0             0.099454    [6[8[1]][1][1][1]]                                          
  O           4.894966             6.938586             4.500561            0            -0.597823    [8[6[1][1][1]][1]]                                          
  H           5.624434             6.969971             5.126123            0             0.402573    [1[8[6]]]                                                   
  H           3.038266             5.905496             4.475867            0             0.031932    [1[6[8][1][1]]]                                             
  H           4.311928             5.107801             5.271609            0             0.031932    [1[6[8][1][1]]]                                             
  H           3.625862             6.468092             6.095905            0             0.031932    [1[6[8][1][1]]]                                             
  C           2.788778             7.113822             10.181854           1             0.099454    [6[8[1]][1][1][1]]                                          
  O           3.801655             6.976364             9.220775            1            -0.597823    [8[6[1][1][1]][1]]                                          
  H           4.465584             6.400968             9.529224            1             0.402573    [1[8[6]]]                                                   
  H           2.109126             6.241315             10.280435           1             0.031932    [1[6[8][1][1]]]                                             
  H           3.263922             7.233564             11.141851           1             0.031932    [1[6[8][1][1]]]                                             
  H           2.128043             7.959936             9.959660            1             0.031932    [1[6[8][1][1]]]                                             
