6

  C           7.461028            -3.924208             7.645301            0             0.089063    [6[8[1]][1][1][1]]                                          
  O           7.795634            -4.883773             8.593616            0            -0.604789    [8[6[1][1][1]][1]]                                          
  H           7.047737            -5.467526             8.677806            0             0.406250    [1[8[6]]]                                                   
  H           8.333208            -3.314785             7.495032            0             0.036492    [1[6[8][1][1]]]                                             
  H           7.054215            -4.277551             6.683916            0             0.036492    [1[6[8][1][1]]]                                             
  H           6.719253            -3.238531             8.013440            0             0.036492    [1[6[8][1][1]]]                                             
