12

  C           11.104101            1.379980            -2.789674            0             0.099454    [6[8[1]][1][1][1]]                                          
  O           10.501086            1.573904            -4.084412            0            -0.597823    [8[6[1][1][1]][1]]                                          
  H           10.985737            2.266012            -4.552232            0             0.402573    [1[8[6]]]                                                   
  H           12.067943            1.871421            -2.666359            0             0.031932    [1[6[8][1][1]]]                                             
  H           10.426387            1.644756            -2.008202            0             0.031932    [1[6[8][1][1]]]                                             
  H           11.529797            0.348971            -2.652523            0             0.031932    [1[6[8][1][1]]]                                             
  C           8.440851             4.101556            -1.792450            1             0.099454    [6[8[1]][1][1][1]]                                          
  O           7.899929             3.599774            -0.570047            1            -0.597823    [8[6[1][1][1]][1]]                                          
  H           8.574306             3.057650            -0.195285            1             0.402573    [1[8[6]]]                                                   
  H           9.545632             4.229841            -1.805738            1             0.031932    [1[6[8][1][1]]]                                             
  H           8.330681             3.390921            -2.631952            1             0.031932    [1[6[8][1][1]]]                                             
  H           8.075778             5.093911            -2.047035            1             0.031932    [1[6[8][1][1]]]                                             
