12

  C          -6.343450            -1.847859            -8.942804            0             0.099454    [6[8[1]][1][1][1]]                                          
  O          -7.682245            -1.594019            -9.050073            0            -0.597823    [8[6[1][1][1]][1]]                                          
  H          -8.145457            -2.414893            -8.938471            0             0.402573    [1[8[6]]]                                                   
  H          -6.074179            -2.331905            -8.002115            0             0.031932    [1[6[8][1][1]]]                                             
  H          -6.188625            -2.642796            -9.680107            0             0.031932    [1[6[8][1][1]]]                                             
  H          -5.730921            -0.938933            -9.192595            0             0.031932    [1[6[8][1][1]]]                                             
  C          -10.667900           -2.676694            -9.261045            1             0.099454    [6[8[1]][1][1][1]]                                          
  O          -10.091336           -3.275970            -8.068997            1            -0.597823    [8[6[1][1][1]][1]]                                          
  H          -9.999850            -4.232679            -8.199208            1             0.402573    [1[8[6]]]                                                   
  H          -11.752914           -2.897693            -9.329886            1             0.031932    [1[6[8][1][1]]]                                             
  H          -10.726048           -1.600290            -9.227443            1             0.031932    [1[6[8][1][1]]]                                             
  H          -10.228046           -3.013178            -10.188570           1             0.031932    [1[6[8][1][1]]]                                             
