12

  C           1.310873             5.480661            -10.596627           0             0.099454    [6[8[1]][1][1][1]]                                          
  O           0.747847             6.689534            -11.032154           0            -0.597823    [8[6[1][1][1]][1]]                                          
  H           0.824475             7.305448            -10.293095           0             0.402573    [1[8[6]]]                                                   
  H           1.374526             4.828493            -11.516798           0             0.031932    [1[6[8][1][1]]]                                             
  H           2.282109             5.512912            -10.040844           0             0.031932    [1[6[8][1][1]]]                                             
  H           0.718205             4.863651            -9.854394            0             0.031932    [1[6[8][1][1]]]                                             
  C          -1.844517             7.549200            -9.476446            1             0.099454    [6[8[1]][1][1][1]]                                          
  O          -1.036996             7.131007            -8.381999            1            -0.597823    [8[6[1][1][1]][1]]                                          
  H          -0.835735             6.198937            -8.380334            1             0.402573    [1[8[6]]]                                                   
  H          -1.412930             7.143828            -10.437911           1             0.031932    [1[6[8][1][1]]]                                             
  H          -2.886758             7.176697            -9.499812            1             0.031932    [1[6[8][1][1]]]                                             
  H          -1.964546             8.643857            -9.423512            1             0.031932    [1[6[8][1][1]]]                                             
