12

  C           5.326910             4.806322            -3.533113            0             0.099454    [6[8[1]][1][1][1]]                                          
  O           6.034877             3.972360            -4.447765            0            -0.597823    [8[6[1][1][1]][1]]                                          
  H           6.237275             3.163824            -3.960999            0             0.402573    [1[8[6]]]                                                   
  H           6.014065             5.326131            -2.833834            0             0.031932    [1[6[8][1][1]]]                                             
  H           4.817935             5.581777            -4.157801            0             0.031932    [1[6[8][1][1]]]                                             
  H           4.623172             4.233674            -2.922331            0             0.031932    [1[6[8][1][1]]]                                             
  C           3.170945             0.983623            -6.569867            1             0.099454    [6[8[1]][1][1][1]]                                          
  O           4.280881             0.472252            -5.817686            1            -0.597823    [8[6[1][1][1]][1]]                                          
  H           4.458388             1.056046            -5.107771            1             0.402573    [1[8[6]]]                                                   
  H           3.371466             2.121854            -6.607864            1             0.031932    [1[6[8][1][1]]]                                             
  H           3.348184             0.656798            -7.618752            1             0.031932    [1[6[8][1][1]]]                                             
  H           2.126035             0.707362            -6.156423            1             0.031932    [1[6[8][1][1]]]                                             
