12

  C          -3.289817             3.839313            -6.482746            0             0.099454    [6[8[1]][1][1][1]]                                          
  O          -4.185576             4.250906            -7.462851            0            -0.597823    [8[6[1][1][1]][1]]                                          
  H          -4.707539             3.455339            -7.545012            0             0.402573    [1[8[6]]]                                                   
  H          -3.645948             3.191517            -5.758856            0             0.031932    [1[6[8][1][1]]]                                             
  H          -2.405513             3.242529            -6.901142            0             0.031932    [1[6[8][1][1]]]                                             
  H          -2.662676             4.632680            -6.020365            0             0.031932    [1[6[8][1][1]]]                                             
  C          -2.126235            -0.360681            -2.637112            1             0.099454    [6[8[1]][1][1][1]]                                          
  O          -1.117700            -1.154782            -3.243928            1            -0.597823    [8[6[1][1][1]][1]]                                          
  H          -0.344218            -1.171476            -2.675353            1             0.402573    [1[8[6]]]                                                   
  H          -2.847046            -0.072665            -3.423563            1             0.031932    [1[6[8][1][1]]]                                             
  H          -2.661588            -0.937043            -1.872576            1             0.031932    [1[6[8][1][1]]]                                             
  H          -1.636193             0.528980            -2.202952            1             0.031932    [1[6[8][1][1]]]                                             
