12

  C           0.745206            -3.975291            -0.579764            0             0.099454    [6[8[1]][1][1][1]]                                          
  O           0.307130            -2.700104            -0.591971            0            -0.597823    [8[6[1][1][1]][1]]                                          
  H           0.261849            -2.321639             0.278129            0             0.402573    [1[8[6]]]                                                   
  H           1.456053            -4.077456             0.239534            0             0.031932    [1[6[8][1][1]]]                                             
  H          -0.000700            -4.631247            -0.176744            0             0.031932    [1[6[8][1][1]]]                                             
  H           1.118313            -4.411004            -1.534896            0             0.031932    [1[6[8][1][1]]]                                             
  C          -2.136062            -3.976692            -3.231994            1             0.099454    [6[8[1]][1][1][1]]                                          
  O          -1.963163            -2.728974            -2.551263            1            -0.597823    [8[6[1][1][1]][1]]                                          
  H          -1.692615            -3.045034            -1.701151            1             0.402573    [1[8[6]]]                                                   
  H          -2.998761            -4.552751            -2.801274            1             0.031932    [1[6[8][1][1]]]                                             
  H          -2.348486            -3.805273            -4.315481            1             0.031932    [1[6[8][1][1]]]                                             
  H          -1.170440            -4.457272            -3.288040            1             0.031932    [1[6[8][1][1]]]                                             
