12

  C           0.886549             0.822237             10.406532           0             0.099454    [6[8[1]][1][1][1]]                                          
  O          -0.359793             0.971877             9.692236            0            -0.597823    [8[6[1][1][1]][1]]                                          
  H          -0.550626             0.048280             9.716713            0             0.402573    [1[8[6]]]                                                   
  H           1.518922             1.710716             10.116938           0             0.031932    [1[6[8][1][1]]]                                             
  H           0.664286             0.723875             11.450918           0             0.031932    [1[6[8][1][1]]]                                             
  H           1.397309            -0.146132             10.165140           0             0.031932    [1[6[8][1][1]]]                                             
  C           1.101496            -2.053978             7.307832            1             0.099454    [6[8[1]][1][1][1]]                                          
  O           1.384987            -2.297058             5.969188            1            -0.597823    [8[6[1][1][1]][1]]                                          
  H           1.151471            -3.185395             5.702275            1             0.402573    [1[8[6]]]                                                   
  H           1.317104            -1.048099             7.698919            1             0.031932    [1[6[8][1][1]]]                                             
  H           0.046442            -2.231063             7.406682            1             0.031932    [1[6[8][1][1]]]                                             
  H           1.610017            -2.809292             7.907819            1             0.031932    [1[6[8][1][1]]]                                             
