12

  C           3.227038             0.299315             2.583247            0             0.099454    [6[8[1]][1][1][1]]                                          
  O           2.666419             0.055697             1.319139            0            -0.597823    [8[6[1][1][1]][1]]                                          
  H           2.532418            -0.879725             1.086573            0             0.402573    [1[8[6]]]                                                   
  H           4.019190            -0.355166             2.838296            0             0.031932    [1[6[8][1][1]]]                                             
  H           3.630524             1.336282             2.668777            0             0.031932    [1[6[8][1][1]]]                                             
  H           2.489073             0.331264             3.443880            0             0.031932    [1[6[8][1][1]]]                                             
  C           1.148353            -5.134750             1.359061            1             0.099454    [6[8[1]][1][1][1]]                                          
  O           0.677754            -3.844119             1.665310            1            -0.597823    [8[6[1][1][1]][1]]                                          
  H           1.365600            -3.185171             1.347727            1             0.402573    [1[8[6]]]                                                   
  H           2.072571            -5.434069             1.815294            1             0.031932    [1[6[8][1][1]]]                                             
  H           0.388310            -5.865048             1.713499            1             0.031932    [1[6[8][1][1]]]                                             
  H           1.217598            -5.345474             0.267756            1             0.031932    [1[6[8][1][1]]]                                             
