11

Cl  3.30192000           1.57920000           0.78081000         
C  2.78758000           0.18442000          -0.20088000         
C  3.48398000          -1.08504000           0.28592000         
C  3.06174000          -2.29661000          -0.54312000         
Cl  3.88583000          -3.76064000           0.04947000         
H  3.04800000           0.38202000          -1.26262000         
H  1.68553000           0.07494000          -0.11286000         
H  3.22052000          -1.26073000           1.35180000         
H  4.58506000          -0.95270000           0.20529000         
H  3.33165000          -2.14405000          -1.60995000         
H  1.96429000          -2.45090000          -0.46595000         
