12

  C          -7.406621            -1.062606            -5.903901            0             0.099454    [6[8[1]][1][1][1]]                                          
  O          -6.974387             0.219346            -6.228345            0            -0.597823    [8[6[1][1][1]][1]]                                          
  H          -7.660141             0.893785            -5.989689            0             0.402573    [1[8[6]]]                                                   
  H          -7.602370            -1.107406            -4.873669            0             0.031932    [1[6[8][1][1]]]                                             
  H          -8.227226            -1.407391            -6.541051            0             0.031932    [1[6[8][1][1]]]                                             
  H          -6.599956            -1.807910            -5.961405            0             0.031932    [1[6[8][1][1]]]                                             
  C          -4.918628             1.185095            -3.716477            1             0.099454    [6[8[1]][1][1][1]]                                          
  O          -4.672259             0.000038            -4.366445            1            -0.597823    [8[6[1][1][1]][1]]                                          
  H          -4.953604             0.228841            -5.286936            1             0.402573    [1[8[6]]]                                                   
  H          -5.340126             1.935895            -4.329332            1             0.031932    [1[6[8][1][1]]]                                             
  H          -5.471046             0.979331            -2.770990            1             0.031932    [1[6[8][1][1]]]                                             
  H          -3.906583             1.564866            -3.351105            1             0.031932    [1[6[8][1][1]]]                                             
