12

  C          -7.103731             6.653923            -1.669574            0             0.099454    [6[8[1]][1][1][1]]                                          
  O          -6.894566             5.210805            -1.789627            0            -0.597823    [8[6[1][1][1]][1]]                                          
  H          -7.334692             4.689197            -1.072243            0             0.402573    [1[8[6]]]                                                   
  H          -8.194465             6.918869            -1.815733            0             0.031932    [1[6[8][1][1]]]                                             
  H          -6.801057             7.072376            -0.661411            0             0.031932    [1[6[8][1][1]]]                                             
  H          -6.560077             7.160748            -2.438667            0             0.031932    [1[6[8][1][1]]]                                             
  C          -10.114085            10.009507           -2.844951            1             0.099454    [6[8[1]][1][1][1]]                                          
  O          -10.634974            9.728531            -1.532701            1            -0.597823    [8[6[1][1][1]][1]]                                          
  H          -10.093719            10.314812           -1.026609            1             0.402573    [1[8[6]]]                                                   
  H          -10.566298            10.919197           -3.225854            1             0.031932    [1[6[8][1][1]]]                                             
  H          -9.039783             10.152510           -2.915477            1             0.031932    [1[6[8][1][1]]]                                             
  H          -10.263614            9.199331            -3.494467            1             0.031932    [1[6[8][1][1]]]                                             
