12

  C           11.104101            1.379980            -2.789674            0             0.099454    [6[8[1]][1][1][1]]                                          
  O           10.501086            1.573904            -4.084412            0            -0.597823    [8[6[1][1][1]][1]]                                          
  H           10.985737            2.266012            -4.552232            0             0.402573    [1[8[6]]]                                                   
  H           12.067943            1.871421            -2.666359            0             0.031932    [1[6[8][1][1]]]                                             
  H           10.426387            1.644756            -2.008202            0             0.031932    [1[6[8][1][1]]]                                             
  H           11.529797            0.348971            -2.652523            0             0.031932    [1[6[8][1][1]]]                                             
  C           8.271127             3.178132            -6.755067            1             0.099454    [6[8[1]][1][1][1]]                                          
  O           9.593530             3.281223            -7.167820            1            -0.597823    [8[6[1][1][1]][1]]                                          
  H           9.967296             4.074480            -6.738436            1             0.402573    [1[8[6]]]                                                   
  H           7.716275             4.038205            -7.136075            1             0.031932    [1[6[8][1][1]]]                                             
  H           7.796655             2.343239            -7.270622            1             0.031932    [1[6[8][1][1]]]                                             
  H           8.064296             3.159911            -5.722429            1             0.031932    [1[6[8][1][1]]]                                             
