12

  C          -6.215711             8.702306            -1.753921            0             0.099454    [6[8[1]][1][1][1]]                                          
  O          -6.204522             7.278721            -1.947713            0            -0.597823    [8[6[1][1][1]][1]]                                          
  H          -7.104918             7.064609            -2.073756            0             0.402573    [1[8[6]]]                                                   
  H          -5.527617             9.106006            -0.946702            0             0.031932    [1[6[8][1][1]]]                                             
  H          -5.940116             9.260479            -2.642426            0             0.031932    [1[6[8][1][1]]]                                             
  H          -7.167443             9.114555            -1.494518            0             0.031932    [1[6[8][1][1]]]                                             
  C          -5.584144             4.216774            -2.974492            1             0.099454    [6[8[1]][1][1][1]]                                          
  O          -5.488972             2.817848            -2.786760            1            -0.597823    [8[6[1][1][1]][1]]                                          
  H          -4.762711             2.523080            -2.276914            1             0.402573    [1[8[6]]]                                                   
  H          -4.592497             4.686853            -2.957562            1             0.031932    [1[6[8][1][1]]]                                             
  H          -6.122841             4.609606            -3.841734            1             0.031932    [1[6[8][1][1]]]                                             
  H          -6.019252             4.673570            -2.114456            1             0.031932    [1[6[8][1][1]]]                                             
