12

  C           8.290622             5.239301            -9.015405            0             0.099454    [6[8[1]][1][1][1]]                                          
  O           7.716649             6.173702            -8.101895            0            -0.597823    [8[6[1][1][1]][1]]                                          
  H           8.239089             5.969744            -7.352667            0             0.402573    [1[8[6]]]                                                   
  H           7.967459             4.219938            -8.846703            0             0.031932    [1[6[8][1][1]]]                                             
  H           7.958367             5.425387            -10.042128           0             0.031932    [1[6[8][1][1]]]                                             
  H           9.361778             5.266100            -8.805668            0             0.031932    [1[6[8][1][1]]]                                             
  C           6.448558             8.923142            -6.774408            1             0.099454    [6[8[1]][1][1][1]]                                          
  O           5.891192             8.446443            -7.965608            1            -0.597823    [8[6[1][1][1]][1]]                                          
  H           6.491010             7.771757            -8.353558            1             0.402573    [1[8[6]]]                                                   
  H           5.574214             9.168510            -6.101320            1             0.031932    [1[6[8][1][1]]]                                             
  H           7.129576             8.252852            -6.263764            1             0.031932    [1[6[8][1][1]]]                                             
  H           6.983048             9.888802            -7.045598            1             0.031932    [1[6[8][1][1]]]                                             
