12

  C           10.289126           -2.634421            -1.941004            0             0.099454    [6[8[1]][1][1][1]]                                          
  O           9.433432            -3.716244            -2.341455            0            -0.597823    [8[6[1][1][1]][1]]                                          
  H           9.747974            -4.128017            -3.118309            0             0.402573    [1[8[6]]]                                                   
  H           10.432611           -1.866400            -2.787029            0             0.031932    [1[6[8][1][1]]]                                             
  H           9.803779            -2.111440            -1.050015            0             0.031932    [1[6[8][1][1]]]                                             
  H           11.290492           -3.035278            -1.606334            0             0.031932    [1[6[8][1][1]]]                                             
  C           6.810272            -5.639102            -2.893015            1             0.099454    [6[8[1]][1][1][1]]                                          
  O           7.400597            -6.879874            -2.672565            1            -0.597823    [8[6[1][1][1]][1]]                                          
  H           8.240190            -6.888730            -2.212595            1             0.402573    [1[8[6]]]                                                   
  H           6.553186            -5.246679            -1.891201            1             0.031932    [1[6[8][1][1]]]                                             
  H           7.419295            -4.864427            -3.395195            1             0.031932    [1[6[8][1][1]]]                                             
  H           5.896662            -5.592998            -3.515592            1             0.031932    [1[6[8][1][1]]]                                             
