12

  C          -4.262804            -3.298811             4.931557            0             0.099454    [6[8[1]][1][1][1]]                                          
  O          -3.864564            -2.942529             6.210114            0            -0.597823    [8[6[1][1][1]][1]]                                          
  H          -2.899731            -2.834253             6.123950            0             0.402573    [1[8[6]]]                                                   
  H          -4.286093            -4.428996             4.908977            0             0.031932    [1[6[8][1][1]]]                                             
  H          -5.227939            -2.841040             4.620827            0             0.031932    [1[6[8][1][1]]]                                             
  H          -3.491225            -3.035285             4.130311            0             0.031932    [1[6[8][1][1]]]                                             
  C          -2.958133            -5.910956             1.866469            1             0.099454    [6[8[1]][1][1][1]]                                          
  O          -2.832775            -7.293299             1.854868            1            -0.597823    [8[6[1][1][1]][1]]                                          
  H          -3.467590            -7.636709             1.262656            1             0.402573    [1[8[6]]]                                                   
  H          -2.945001            -5.442606             0.902511            1             0.031932    [1[6[8][1][1]]]                                             
  H          -3.971730            -5.552848             2.280433            1             0.031932    [1[6[8][1][1]]]                                             
  H          -2.192545            -5.548036             2.414765            1             0.031932    [1[6[8][1][1]]]                                             
