12

  C          -0.007571             2.884202             0.553842            0             0.099454    [6[8[1]][1][1][1]]                                          
  O          -0.961278             2.596705            -0.447890            0            -0.597823    [8[6[1][1][1]][1]]                                          
  H          -1.309672             3.448110            -0.727636            0             0.402573    [1[8[6]]]                                                   
  H          -0.458122             3.474589             1.324680            0             0.031932    [1[6[8][1][1]]]                                             
  H           0.421138             2.083740             1.150053            0             0.031932    [1[6[8][1][1]]]                                             
  H           0.747337             3.588553             0.238310            0             0.031932    [1[6[8][1][1]]]                                             
  C          -1.304668             6.825085            -1.251012            1             0.099454    [6[8[1]][1][1][1]]                                          
  O          -1.780940             5.692923            -0.579004            1            -0.597823    [8[6[1][1][1]][1]]                                          
  H          -2.721488             5.823928            -0.475654            1             0.402573    [1[8[6]]]                                                   
  H          -1.420874             7.771139            -0.682283            1             0.031932    [1[6[8][1][1]]]                                             
  H          -0.269965             6.629542            -1.463105            1             0.031932    [1[6[8][1][1]]]                                             
  H          -1.886430             6.968404            -2.148956            1             0.031932    [1[6[8][1][1]]]                                             
