12

  C           1.228255             8.850175            -3.515345            0             0.099454    [6[8[1]][1][1][1]]                                          
  O           1.191600             8.715200            -2.081027            0            -0.597823    [8[6[1][1][1]][1]]                                          
  H           0.242599             8.844409            -1.860280            0             0.402573    [1[8[6]]]                                                   
  H           1.453714             9.811640            -3.993332            0             0.031932    [1[6[8][1][1]]]                                             
  H           1.787758             7.990946            -3.923253            0             0.031932    [1[6[8][1][1]]]                                             
  H           0.282204             8.617246            -3.914783            0             0.031932    [1[6[8][1][1]]]                                             
  C           4.935027             10.096146           -2.149973            1             0.099454    [6[8[1]][1][1][1]]                                          
  O           3.643900             10.409832           -1.754304            1            -0.597823    [8[6[1][1][1]][1]]                                          
  H           3.059249             9.656433            -1.985649            1             0.402573    [1[8[6]]]                                                   
  H           4.791418             9.622786            -3.172130            1             0.031932    [1[6[8][1][1]]]                                             
  H           5.548370             10.968374           -2.274996            1             0.031932    [1[6[8][1][1]]]                                             
  H           5.286407             9.378235            -1.404877            1             0.031932    [1[6[8][1][1]]]                                             
