12

  C          -4.262804            -3.298811             4.931557            0             0.099454    [6[8[1]][1][1][1]]                                          
  O          -3.864564            -2.942529             6.210114            0            -0.597823    [8[6[1][1][1]][1]]                                          
  H          -2.899731            -2.834253             6.123950            0             0.402573    [1[8[6]]]                                                   
  H          -4.286093            -4.428996             4.908977            0             0.031932    [1[6[8][1][1]]]                                             
  H          -5.227939            -2.841040             4.620827            0             0.031932    [1[6[8][1][1]]]                                             
  H          -3.491225            -3.035285             4.130311            0             0.031932    [1[6[8][1][1]]]                                             
  C           0.029205            -3.305085             5.575801            1             0.099454    [6[8[1]][1][1][1]]                                          
  O          -1.152025            -2.596991             5.492510            1            -0.597823    [8[6[1][1][1]][1]]                                          
  H          -0.980307            -2.042697             4.669758            1             0.402573    [1[8[6]]]                                                   
  H           0.889800            -2.641096             5.935441            1             0.031932    [1[6[8][1][1]]]                                             
  H          -0.058726            -4.169142             6.203153            1             0.031932    [1[6[8][1][1]]]                                             
  H           0.260555            -3.587206             4.550461            1             0.031932    [1[6[8][1][1]]]                                             
