12

  C           10.151555            8.697992            -2.113844            0             0.099454    [6[8[1]][1][1][1]]                                          
  O           8.907114             8.041381            -1.854696            0            -0.597823    [8[6[1][1][1]][1]]                                          
  H           8.176294             8.540252            -2.215552            0             0.402573    [1[8[6]]]                                                   
  H           10.937525            7.939530            -1.949895            0             0.031932    [1[6[8][1][1]]]                                             
  H           10.135819            9.106653            -3.162596            0             0.031932    [1[6[8][1][1]]]                                             
  H           10.323929            9.538655            -1.477755            0             0.031932    [1[6[8][1][1]]]                                             
  C           9.470405             4.474331            -1.884161            1             0.099454    [6[8[1]][1][1][1]]                                          
  O           9.875035             4.666858            -0.602479            1            -0.597823    [8[6[1][1][1]][1]]                                          
  H           10.440360            5.453640            -0.584402            1             0.402573    [1[8[6]]]                                                   
  H           8.712579             3.731886            -1.997348            1             0.031932    [1[6[8][1][1]]]                                             
  H           9.121315             5.305942            -2.494022            1             0.031932    [1[6[8][1][1]]]                                             
  H           10.293838            4.029268            -2.511324            1             0.031932    [1[6[8][1][1]]]                                             
