12

  C          -4.769766            -3.580536             9.570225            0             0.099454    [6[8[1]][1][1][1]]                                          
  O          -4.512011            -2.670247             8.537336            0            -0.597823    [8[6[1][1][1]][1]]                                          
  H          -4.507633            -1.874928             9.074293            0             0.402573    [1[8[6]]]                                                   
  H          -4.004359            -3.378747             10.345685           0             0.031932    [1[6[8][1][1]]]                                             
  H          -5.746053            -3.566870             10.002338           0             0.031932    [1[6[8][1][1]]]                                             
  H          -4.559165            -4.618552             9.236661            0             0.031932    [1[6[8][1][1]]]                                             
  C          -7.170731            -7.018822             7.564940            1             0.099454    [6[8[1]][1][1][1]]                                          
  O          -7.322820            -5.911214             8.512337            1            -0.597823    [8[6[1][1][1]][1]]                                          
  H          -6.836941            -6.193538             9.276984            1             0.402573    [1[8[6]]]                                                   
  H          -6.103966            -7.129200             7.394110            1             0.031932    [1[6[8][1][1]]]                                             
  H          -7.618076            -7.927522             7.928015            1             0.031932    [1[6[8][1][1]]]                                             
  H          -7.607726            -6.839114             6.564391            1             0.031932    [1[6[8][1][1]]]                                             
