12

  C           0.325050             3.682876             4.670970            0             0.099454    [6[8[1]][1][1][1]]                                          
  O          -0.846528             4.166738             4.035653            0            -0.597823    [8[6[1][1][1]][1]]                                          
  H          -1.548622             4.059657             4.702336            0             0.402573    [1[8[6]]]                                                   
  H           0.917244             3.089913             4.008710            0             0.031932    [1[6[8][1][1]]]                                             
  H           1.078371             4.362851             4.962118            0             0.031932    [1[6[8][1][1]]]                                             
  H           0.047949             3.124406             5.575140            0             0.031932    [1[6[8][1][1]]]                                             
  C           3.639988             6.357065             6.076319            1             0.099454    [6[8[1]][1][1][1]]                                          
  O           4.405180             7.512862             5.781901            1            -0.597823    [8[6[1][1][1]][1]]                                          
  H           3.861962             8.228284             5.423984            1             0.402573    [1[8[6]]]                                                   
  H           2.636027             6.467495             5.668467            1             0.031932    [1[6[8][1][1]]]                                             
  H           3.983143             5.472368             5.565540            1             0.031932    [1[6[8][1][1]]]                                             
  H           3.713153             6.233174             7.130214            1             0.031932    [1[6[8][1][1]]]                                             
