12

  C          -6.481891            -7.877271             7.250222            0             0.099454    [6[8[1]][1][1][1]]                                          
  O          -6.198547            -6.565036             6.837370            0            -0.597823    [8[6[1][1][1]][1]]                                          
  H          -6.806889            -6.005382             7.336781            0             0.402573    [1[8[6]]]                                                   
  H          -7.552956            -8.073217             7.112625            0             0.031932    [1[6[8][1][1]]]                                             
  H          -5.784904            -8.580147             6.772301            0             0.031932    [1[6[8][1][1]]]                                             
  H          -6.373916            -7.930089             8.316778            0             0.031932    [1[6[8][1][1]]]                                             
  C          -2.666083            -6.362759             7.517748            1             0.099454    [6[8[1]][1][1][1]]                                          
  O          -3.793250            -5.568648             7.888286            1            -0.597823    [8[6[1][1][1]][1]]                                          
  H          -4.571121            -6.101664             7.614663            1             0.402573    [1[8[6]]]                                                   
  H          -2.570844            -6.438066             6.413652            1             0.031932    [1[6[8][1][1]]]                                             
  H          -1.717731            -5.986087             7.888188            1             0.031932    [1[6[8][1][1]]]                                             
  H          -2.698417            -7.418068             7.962790            1             0.031932    [1[6[8][1][1]]]                                             
