12

  C          -8.408628            -6.077330             5.994400            0             0.099454    [6[8[1]][1][1][1]]                                          
  O          -8.191129            -6.136432             7.414931            0            -0.597823    [8[6[1][1][1]][1]]                                          
  H          -8.526472            -6.979729             7.689551            0             0.402573    [1[8[6]]]                                                   
  H          -8.233246            -5.066164             5.609936            0             0.031932    [1[6[8][1][1]]]                                             
  H          -7.815096            -6.825520             5.471362            0             0.031932    [1[6[8][1][1]]]                                             
  H          -9.422987            -6.376404             5.755330            0             0.031932    [1[6[8][1][1]]]                                             
  C          -5.484438            -10.078083            6.406654            1             0.099454    [6[8[1]][1][1][1]]                                          
  O          -6.265577            -9.407845             7.316809            1            -0.597823    [8[6[1][1][1]][1]]                                          
  H          -6.122561            -8.521151             7.086940            1             0.402573    [1[8[6]]]                                                   
  H          -6.090158            -10.655197            5.750842            1             0.031932    [1[6[8][1][1]]]                                             
  H          -4.814471            -9.502653             5.763758            1             0.031932    [1[6[8][1][1]]]                                             
  H          -4.811832            -10.790068            7.002692            1             0.031932    [1[6[8][1][1]]]                                             
