12

  C          -2.148013             2.129847             1.911966            0             0.099454    [6[8[1]][1][1][1]]                                          
  O          -0.703100             2.202816             2.039990            0            -0.597823    [8[6[1][1][1]][1]]                                          
  H          -0.327344             2.930984             1.522731            0             0.402573    [1[8[6]]]                                                   
  H          -2.414317             2.238284             0.914172            0             0.031932    [1[6[8][1][1]]]                                             
  H          -2.582117             1.155431             2.198879            0             0.031932    [1[6[8][1][1]]]                                             
  H          -2.594961             2.946416             2.554262            0             0.031932    [1[6[8][1][1]]]                                             
  C          -5.044066             0.404302            -1.663991            1             0.099454    [6[8[1]][1][1][1]]                                          
  O          -6.434132             0.548854            -1.331317            1            -0.597823    [8[6[1][1][1]][1]]                                          
  H          -6.609572             0.645943            -0.347889            1             0.402573    [1[8[6]]]                                                   
  H          -4.488674             1.043460            -0.975449            1             0.031932    [1[6[8][1][1]]]                                             
  H          -4.723905            -0.685298            -1.583405            1             0.031932    [1[6[8][1][1]]]                                             
  H          -4.810426             0.769304            -2.685732            1             0.031932    [1[6[8][1][1]]]                                             
