12

  C           0.999467            -9.027304            -3.912011            0             0.099454    [6[8[1]][1][1][1]]                                          
  O           2.186414            -9.130388            -3.186209            0            -0.597823    [8[6[1][1][1]][1]]                                          
  H           2.083546            -9.885682            -2.567494            0             0.402573    [1[8[6]]]                                                   
  H           0.950091            -9.809537            -4.582821            0             0.031932    [1[6[8][1][1]]]                                             
  H           0.089306            -9.087572            -3.267712            0             0.031932    [1[6[8][1][1]]]                                             
  H           0.963477            -8.154280            -4.573107            0             0.031932    [1[6[8][1][1]]]                                             
  C          -2.659229            -6.784387            -1.729437            1             0.099454    [6[8[1]][1][1][1]]                                          
  O          -3.420022            -7.948916            -1.735076            1            -0.597823    [8[6[1][1][1]][1]]                                          
  H          -2.863842            -8.505846            -1.195786            1             0.402573    [1[8[6]]]                                                   
  H          -2.262641            -6.660623            -2.744565            1             0.031932    [1[6[8][1][1]]]                                             
  H          -3.269731            -5.890599            -1.571126            1             0.031932    [1[6[8][1][1]]]                                             
  H          -1.812656            -6.784619            -1.019134            1             0.031932    [1[6[8][1][1]]]                                             
