12

  C           0.196325            -0.976893             10.050342           0             0.099454    [6[8[1]][1][1][1]]                                          
  O           1.433650            -0.253384             9.974844            0            -0.597823    [8[6[1][1][1]][1]]                                          
  H           1.432420             0.446621             10.619602           0             0.402573    [1[8[6]]]                                                   
  H          -0.611933            -0.325739             10.403889           0             0.031932    [1[6[8][1][1]]]                                             
  H          -0.103297            -1.288178             8.974143            0             0.031932    [1[6[8][1][1]]]                                             
  H           0.344229            -1.799503             10.711079           0             0.031932    [1[6[8][1][1]]]                                             
  C           0.183462             0.452977             6.161411            1             0.099454    [6[8[1]][1][1][1]]                                          
  O           0.088514             1.558360             6.965881            1            -0.597823    [8[6[1][1][1]][1]]                                          
  H           0.995912             1.881266             7.136302            1             0.402573    [1[8[6]]]                                                   
  H          -0.781948             0.267522             5.660353            1             0.031932    [1[6[8][1][1]]]                                             
  H           0.841849             0.636354             5.347028            1             0.031932    [1[6[8][1][1]]]                                             
  H           0.628040            -0.451358             6.668737            1             0.031932    [1[6[8][1][1]]]                                             
