12

  C          -5.732268            -10.125279           -1.351968            0             0.099454    [6[8[1]][1][1][1]]                                          
  O          -6.836174            -9.413016            -0.708576            0            -0.597823    [8[6[1][1][1]][1]]                                          
  H          -7.613012            -9.982425            -0.455737            0             0.402573    [1[8[6]]]                                                   
  H          -4.905482            -9.401689            -1.548393            0             0.031932    [1[6[8][1][1]]]                                             
  H          -5.473831            -11.022509           -0.746062            0             0.031932    [1[6[8][1][1]]]                                             
  H          -6.049753            -10.514197           -2.342592            0             0.031932    [1[6[8][1][1]]]                                             
  C          -8.183820            -8.890528            -5.592475            1             0.099454    [6[8[1]][1][1][1]]                                          
  O          -8.780247            -8.304853            -6.702268            1            -0.597823    [8[6[1][1][1]][1]]                                          
  H          -8.825074            -8.889431            -7.467641            1             0.402573    [1[8[6]]]                                                   
  H          -8.462808            -9.888458            -5.483758            1             0.031932    [1[6[8][1][1]]]                                             
  H          -7.092335            -8.916244            -5.847130            1             0.031932    [1[6[8][1][1]]]                                             
  H          -8.420054            -8.462473            -4.565540            1             0.031932    [1[6[8][1][1]]]                                             
