12

  C          -2.148013             2.129847             1.911966            0             0.099454    [6[8[1]][1][1][1]]                                          
  O          -0.703100             2.202816             2.039990            0            -0.597823    [8[6[1][1][1]][1]]                                          
  H          -0.327344             2.930984             1.522731            0             0.402573    [1[8[6]]]                                                   
  H          -2.414317             2.238284             0.914172            0             0.031932    [1[6[8][1][1]]]                                             
  H          -2.582117             1.155431             2.198879            0             0.031932    [1[6[8][1][1]]]                                             
  H          -2.594961             2.946416             2.554262            0             0.031932    [1[6[8][1][1]]]                                             
  C          -1.021915             2.852459            -2.001228            1             0.099454    [6[8[1]][1][1][1]]                                          
  O          -0.952008             4.277122            -1.661741            1            -0.597823    [8[6[1][1][1]][1]]                                          
  H          -1.236880             4.719434            -2.465130            1             0.402573    [1[8[6]]]                                                   
  H          -0.167043             2.540624            -2.682369            1             0.031932    [1[6[8][1][1]]]                                             
  H          -1.096906             2.264152            -1.113842            1             0.031932    [1[6[8][1][1]]]                                             
  H          -1.909074             2.582421            -2.660496            1             0.031932    [1[6[8][1][1]]]                                             
