12

C  0.95005000          -0.16855000           0.04446000         
N  2.39491000          -0.10157000           0.05084000         
C  3.16762000          -1.21469000          -0.05938000         
C  4.66122000          -1.08913000          -0.04721000         
O  2.65416000          -2.32004000          -0.16863000         
H  0.52724000           0.85351000           0.14562000         
H  0.59294000          -0.78653000           0.89565000         
H  0.59265000          -0.60781000          -0.91119000         
H  2.84806000           0.82058000           0.14198000         
H  5.14581000          -2.08400000          -0.14569000         
H  4.98586000          -0.62533000           0.90776000         
H  4.98557000          -0.44723000          -0.89292000         
