12

  C          -3.641882            -6.013494            -3.653541            0             0.099454    [6[8[1]][1][1][1]]                                          
  O          -3.109496            -5.033797            -2.834084            0            -0.597823    [8[6[1][1][1]][1]]                                          
  H          -2.177298            -4.956198            -2.865698            0             0.402573    [1[8[6]]]                                                   
  H          -3.149717            -6.980031            -3.450855            0             0.031932    [1[6[8][1][1]]]                                             
  H          -4.734627            -6.165777            -3.567122            0             0.031932    [1[6[8][1][1]]]                                             
  H          -3.537758            -5.813317            -4.687027            0             0.031932    [1[6[8][1][1]]]                                             
  C          -3.521671            -3.671496            -7.858580            1             0.099454    [6[8[1]][1][1][1]]                                          
  O          -4.822215            -3.315356            -8.168324            1            -0.597823    [8[6[1][1][1]][1]]                                          
  H          -5.477363            -4.041059            -8.013014            1             0.402573    [1[8[6]]]                                                   
  H          -3.465493            -4.596778            -7.181754            1             0.031932    [1[6[8][1][1]]]                                             
  H          -2.943379            -3.945071            -8.770524            1             0.031932    [1[6[8][1][1]]]                                             
  H          -2.993046            -2.870484            -7.387127            1             0.031932    [1[6[8][1][1]]]                                             
