12

  C           2.523888             4.676657             7.090738            0             0.099454    [6[8[1]][1][1][1]]                                          
  O           2.566897             6.070124             6.773619            0            -0.597823    [8[6[1][1][1]][1]]                                          
  H           1.949694             6.599378             7.303895            0             0.402573    [1[8[6]]]                                                   
  H           3.367195             4.206097             6.586594            0             0.031932    [1[6[8][1][1]]]                                             
  H           2.634672             4.644139             8.164876            0             0.031932    [1[6[8][1][1]]]                                             
  H           1.636308             4.135860             6.734283            0             0.031932    [1[6[8][1][1]]]                                             
  C           1.153015             7.440494             9.687069            1             0.099454    [6[8[1]][1][1][1]]                                          
  O           1.148087             8.072663             8.492310            1            -0.597823    [8[6[1][1][1]][1]]                                          
  H           0.596401             8.857626             8.516023            1             0.402573    [1[8[6]]]                                                   
  H           0.116682             7.233832             9.945417            1             0.031932    [1[6[8][1][1]]]                                             
  H           1.592980             6.470411             9.584700            1             0.031932    [1[6[8][1][1]]]                                             
  H           1.713234             7.958562             10.442163           1             0.031932    [1[6[8][1][1]]]                                             
