12

  C           7.632217             9.699304            -7.585289            0             0.099454    [6[8[1]][1][1][1]]                                          
  O           8.220885             8.717487            -8.487322            0            -0.597823    [8[6[1][1][1]][1]]                                          
  H           8.292732             7.918457            -7.923862            0             0.402573    [1[8[6]]]                                                   
  H           7.388094             10.683171           -8.048767            0             0.031932    [1[6[8][1][1]]]                                             
  H           6.886025             9.245156            -6.974468            0             0.031932    [1[6[8][1][1]]]                                             
  H           8.453979             9.988415            -6.909452            0             0.031932    [1[6[8][1][1]]]                                             
  C           7.299081             6.211905            -6.216237            1             0.099454    [6[8[1]][1][1][1]]                                          
  O           7.809995             5.944913            -7.503371            1            -0.597823    [8[6[1][1][1]][1]]                                          
  H           8.447531             5.220115            -7.369496            1             0.402573    [1[8[6]]]                                                   
  H           8.033073             6.723322            -5.566266            1             0.031932    [1[6[8][1][1]]]                                             
  H           6.499122             6.867116            -6.233632            1             0.031932    [1[6[8][1][1]]]                                             
  H           7.012004             5.264748            -5.650469            1             0.031932    [1[6[8][1][1]]]                                             
