5

F  1.03316000          -0.04330000          -0.07175000         
C  2.39146000          -0.02969000          -0.07046000         
Cl  2.97061000           0.91648000          -1.44596000         
Cl  2.97060000           0.64303000           1.45751000         
H  2.74927000          -1.05800000          -0.16731000         
