12

  C          -3.152113            -1.685180             5.511687            0             0.099454    [6[8[1]][1][1][1]]                                          
  O          -3.578452            -2.644021             4.578806            0            -0.597823    [8[6[1][1][1]][1]]                                          
  H          -2.831220            -3.224825             4.420491            0             0.402573    [1[8[6]]]                                                   
  H          -2.231712            -1.127083             5.128433            0             0.031932    [1[6[8][1][1]]]                                             
  H          -3.887088            -1.022022             5.889255            0             0.031932    [1[6[8][1][1]]]                                             
  H          -2.718246            -2.180419             6.352590            0             0.031932    [1[6[8][1][1]]]                                             
  C          -5.692550             1.901608             3.566777            1             0.099454    [6[8[1]][1][1][1]]                                          
  O          -7.040810             1.705457             3.262053            1            -0.597823    [8[6[1][1][1]][1]]                                          
  H          -7.466480             2.089699             4.000003            1             0.402573    [1[8[6]]]                                                   
  H          -5.360571             1.400540             4.493794            1             0.031932    [1[6[8][1][1]]]                                             
  H          -5.074684             1.437243             2.750245            1             0.031932    [1[6[8][1][1]]]                                             
  H          -5.512614             2.980023             3.658668            1             0.031932    [1[6[8][1][1]]]                                             
