12

  C          -4.560682            -4.329770             1.110956            0             0.099454    [6[8[1]][1][1][1]]                                          
  O          -3.928309            -5.024112             2.117217            0            -0.597823    [8[6[1][1][1]][1]]                                          
  H          -3.662203            -5.864956             1.700131            0             0.402573    [1[8[6]]]                                                   
  H          -5.471232            -4.871591             0.797603            0             0.031932    [1[6[8][1][1]]]                                             
  H          -4.921328            -3.343781             1.562688            0             0.031932    [1[6[8][1][1]]]                                             
  H          -3.888416            -4.178399             0.273072            0             0.031932    [1[6[8][1][1]]]                                             
  C          -6.561807            -7.762744             2.531762            1             0.099454    [6[8[1]][1][1][1]]                                          
  O          -5.570586            -8.353018             3.380342            1            -0.597823    [8[6[1][1][1]][1]]                                          
  H          -4.834959            -7.737960             3.465775            1             0.402573    [1[8[6]]]                                                   
  H          -7.017339            -6.940221             3.027210            1             0.031932    [1[6[8][1][1]]]                                             
  H          -6.086870            -7.384128             1.607420            1             0.031932    [1[6[8][1][1]]]                                             
  H          -7.346640            -8.404786             2.215934            1             0.031932    [1[6[8][1][1]]]                                             
