12

  C          -5.272927            -1.364108             1.728997            0             0.099454    [6[8[1]][1][1][1]]                                          
  O          -5.774014            -2.247115             2.688115            0            -0.597823    [8[6[1][1][1]][1]]                                          
  H          -6.032081            -3.122064             2.287898            0             0.402573    [1[8[6]]]                                                   
  H          -4.128287            -1.490390             1.585377            0             0.031932    [1[6[8][1][1]]]                                             
  H          -5.793673            -1.525544             0.712564            0             0.031932    [1[6[8][1][1]]]                                             
  H          -5.338184            -0.335502             1.940388            0             0.031932    [1[6[8][1][1]]]                                             
  C          -6.524072            -2.203817            -2.375962            1             0.099454    [6[8[1]][1][1][1]]                                          
  O          -6.769655            -2.963355            -1.148062            1            -0.597823    [8[6[1][1][1]][1]]                                          
  H          -5.922754            -2.827025            -0.644799            1             0.402573    [1[8[6]]]                                                   
  H          -5.407294            -2.234582            -2.690142            1             0.031932    [1[6[8][1][1]]]                                             
  H          -7.171416            -2.481153            -3.240957            1             0.031932    [1[6[8][1][1]]]                                             
  H          -6.743710            -1.160809            -2.321463            1             0.031932    [1[6[8][1][1]]]                                             
