12

  C           3.842016             6.695679             2.250202            0             0.099454    [6[8[1]][1][1][1]]                                          
  O           2.873278             7.246164             1.343030            0            -0.597823    [8[6[1][1][1]][1]]                                          
  H           3.031708             6.919436             0.425400            0             0.402573    [1[8[6]]]                                                   
  H           3.817862             5.565453             2.173094            0             0.031932    [1[6[8][1][1]]]                                             
  H           4.822762             6.953849             1.878522            0             0.031932    [1[6[8][1][1]]]                                             
  H           3.663193             7.138407             3.241986            0             0.031932    [1[6[8][1][1]]]                                             
  C           4.636242             10.241333           -0.168985            1             0.099454    [6[8[1]][1][1][1]]                                          
  O           5.247859             10.550946            1.085915            1            -0.597823    [8[6[1][1][1]][1]]                                          
  H           5.687021             9.727331             1.357490            1             0.402573    [1[8[6]]]                                                   
  H           4.510501             11.202798           -0.790874            1             0.031932    [1[6[8][1][1]]]                                             
  H           5.400138             9.598197            -0.761799            1             0.031932    [1[6[8][1][1]]]                                             
  H           3.711608             9.682024            -0.079434            1             0.031932    [1[6[8][1][1]]]                                             
