12

  C          -3.485730            -1.394707            -9.730617            0             0.099454    [6[8[1]][1][1][1]]                                          
  O          -2.209008            -1.200329            -10.263792           0            -0.597823    [8[6[1][1][1]][1]]                                          
  H          -1.614533            -1.875366            -9.926658            0             0.402573    [1[8[6]]]                                                   
  H          -4.240539            -0.844386            -10.235814           0             0.031932    [1[6[8][1][1]]]                                             
  H          -3.804167            -2.419185            -9.794614            0             0.031932    [1[6[8][1][1]]]                                             
  H          -3.535408            -1.094552            -8.687688            0             0.031932    [1[6[8][1][1]]]                                             
  C          -0.775946            -4.067076            -7.922142            1             0.099454    [6[8[1]][1][1][1]]                                          
  O          -0.095295            -3.031647            -8.562223            1            -0.597823    [8[6[1][1][1]][1]]                                          
  H           0.844014            -3.107759            -8.337877            1             0.402573    [1[8[6]]]                                                   
  H          -1.819958            -4.091292            -8.093578            1             0.031932    [1[6[8][1][1]]]                                             
  H          -0.468927            -5.104595            -8.085485            1             0.031932    [1[6[8][1][1]]]                                             
  H          -0.670651            -3.907409            -6.836843            1             0.031932    [1[6[8][1][1]]]                                             
