12

  C          -5.192736            -2.225288             6.637700            0             0.099454    [6[8[1]][1][1][1]]                                          
  O          -5.408181            -1.507434             5.386835            0            -0.597823    [8[6[1][1][1]][1]]                                          
  H          -4.517370            -1.420161             5.041826            0             0.402573    [1[8[6]]]                                                   
  H          -4.838058            -1.544956             7.408872            0             0.031932    [1[6[8][1][1]]]                                             
  H          -6.004383            -2.688830             7.117625            0             0.031932    [1[6[8][1][1]]]                                             
  H          -4.338427            -2.918640             6.592779            0             0.031932    [1[6[8][1][1]]]                                             
  C          -5.973001            -0.386174             10.427170           1             0.099454    [6[8[1]][1][1][1]]                                          
  O          -6.679194            -0.761739             9.205489            1            -0.597823    [8[6[1][1][1]][1]]                                          
  H          -7.170868            -1.617442             9.360693            1             0.402573    [1[8[6]]]                                                   
  H          -5.164127             0.326669             10.294653           1             0.031932    [1[6[8][1][1]]]                                             
  H          -6.723016             0.083022             11.103129           1             0.031932    [1[6[8][1][1]]]                                             
  H          -5.516161            -1.206222             10.949054           1             0.031932    [1[6[8][1][1]]]                                             
