12

  C           6.913188            -7.788106            -6.328977            0             0.099454    [6[8[1]][1][1][1]]                                          
  O           7.567748            -8.375362            -7.417592            0            -0.597823    [8[6[1][1][1]][1]]                                          
  H           8.466793            -8.087374            -7.358953            0             0.402573    [1[8[6]]]                                                   
  H           7.397767            -7.850017            -5.414546            0             0.031932    [1[6[8][1][1]]]                                             
  H           6.902362            -6.729943            -6.498835            0             0.031932    [1[6[8][1][1]]]                                             
  H           5.842008            -7.955104            -6.299766            0             0.031932    [1[6[8][1][1]]]                                             
  C           10.222651           -6.865187            -9.434324            1             0.099454    [6[8[1]][1][1][1]]                                          
  O           10.338440           -7.570229            -8.272993            1            -0.597823    [8[6[1][1][1]][1]]                                          
  H           11.199313           -8.019206            -8.337695            1             0.402573    [1[8[6]]]                                                   
  H           11.219913           -6.901676            -9.961368            1             0.031932    [1[6[8][1][1]]]                                             
  H           9.505957            -7.287844            -10.153554           1             0.031932    [1[6[8][1][1]]]                                             
  H           9.995374            -5.800123            -9.295569            1             0.031932    [1[6[8][1][1]]]                                             
