12

  C           11.131593           -7.344835            -2.963129            0             0.099454    [6[8[1]][1][1][1]]                                          
  O           11.372094           -8.689135            -3.112150            0            -0.597823    [8[6[1][1][1]][1]]                                          
  H           11.419656           -9.113296            -2.276006            0             0.402573    [1[8[6]]]                                                   
  H           11.439993           -6.752302            -3.807982            0             0.031932    [1[6[8][1][1]]]                                             
  H           10.118018           -7.126478            -2.706469            0             0.031932    [1[6[8][1][1]]]                                             
  H           11.730790           -6.856825            -2.190263            0             0.031932    [1[6[8][1][1]]]                                             
  C           7.695051            -7.276950             0.412980            1             0.099454    [6[8[1]][1][1][1]]                                          
  O           8.970194            -6.688546             0.221901            1            -0.597823    [8[6[1][1][1]][1]]                                          
  H           8.750554            -5.892536            -0.340025            1             0.402573    [1[8[6]]]                                                   
  H           7.752044            -8.187793             1.079230            1             0.031932    [1[6[8][1][1]]]                                             
  H           6.997280            -6.546783             0.831304            1             0.031932    [1[6[8][1][1]]]                                             
  H           7.280716            -7.647085            -0.589028            1             0.031932    [1[6[8][1][1]]]                                             
