12

  C           10.085171            9.090846            -6.497490            0             0.099454    [6[8[1]][1][1][1]]                                          
  O           9.870105             7.743981            -6.738684            0            -0.597823    [8[6[1][1][1]][1]]                                          
  H           9.596428             7.627402            -7.668537            0             0.402573    [1[8[6]]]                                                   
  H           10.240051            9.593562            -7.467117            0             0.031932    [1[6[8][1][1]]]                                             
  H           9.364494             9.634166            -5.908815            0             0.031932    [1[6[8][1][1]]]                                             
  H           11.032180            9.300689            -5.983905            0             0.031932    [1[6[8][1][1]]]                                             
  C           11.124728            6.806554            -1.999507            1             0.099454    [6[8[1]][1][1][1]]                                          
  O           11.135662            7.524136            -3.229078            1            -0.597823    [8[6[1][1][1]][1]]                                          
  H           11.150037            6.941108            -3.973660            1             0.402573    [1[8[6]]]                                                   
  H           11.890149            7.088293            -1.238155            1             0.031932    [1[6[8][1][1]]]                                             
  H           10.127329            6.923081            -1.584737            1             0.031932    [1[6[8][1][1]]]                                             
  H           11.358672            5.789008            -2.172048            1             0.031932    [1[6[8][1][1]]]                                             
