12

  C          -6.089729             4.718462            -4.995477            0             0.099454    [6[8[1]][1][1][1]]                                          
  O          -7.378963             5.167259            -5.188108            0            -0.597823    [8[6[1][1][1]][1]]                                          
  H          -7.301230             5.778819            -5.888763            0             0.402573    [1[8[6]]]                                                   
  H          -5.713952             4.882978            -3.965145            0             0.031932    [1[6[8][1][1]]]                                             
  H          -6.106463             3.570739            -5.127612            0             0.031932    [1[6[8][1][1]]]                                             
  H          -5.362559             5.028709            -5.773777            0             0.031932    [1[6[8][1][1]]]                                             
  C          -5.382027             7.680105            -7.118423            1             0.099454    [6[8[1]][1][1][1]]                                          
  O          -6.712224             7.274418            -7.017612            1            -0.597823    [8[6[1][1][1]][1]]                                          
  H          -6.870014             6.652180            -7.679816            1             0.402573    [1[8[6]]]                                                   
  H          -4.734573             6.926680            -7.625645            1             0.031932    [1[6[8][1][1]]]                                             
  H          -5.309369             8.612434            -7.688861            1             0.031932    [1[6[8][1][1]]]                                             
  H          -5.064055             7.738493            -6.095595            1             0.031932    [1[6[8][1][1]]]                                             
