12

  C           5.841575             5.538677            -8.971014            0             0.099454    [6[8[1]][1][1][1]]                                          
  O           5.937929             5.637680            -10.311734           0            -0.597823    [8[6[1][1][1]][1]]                                          
  H           6.324297             4.832202            -10.653868           0             0.402573    [1[8[6]]]                                                   
  H           5.247490             6.394668            -8.527192            0             0.031932    [1[6[8][1][1]]]                                             
  H           5.280921             4.660592            -8.722857            0             0.031932    [1[6[8][1][1]]]                                             
  H           6.775231             5.503065            -8.381655            0             0.031932    [1[6[8][1][1]]]                                             
  C           2.337473             3.686751            -9.965855            1             0.099454    [6[8[1]][1][1][1]]                                          
  O           3.482262             3.632745            -10.707156           1            -0.597823    [8[6[1][1][1]][1]]                                          
  H           3.953443             4.382835            -10.336825           1             0.402573    [1[8[6]]]                                                   
  H           1.706733             2.764936            -10.048201           1             0.031932    [1[6[8][1][1]]]                                             
  H           2.579097             3.920902            -8.912619            1             0.031932    [1[6[8][1][1]]]                                             
  H           1.756712             4.539307            -10.240447           1             0.031932    [1[6[8][1][1]]]                                             
