12

  C          -7.103731             6.653923            -1.669574            0             0.099454    [6[8[1]][1][1][1]]                                          
  O          -6.894566             5.210805            -1.789627            0            -0.597823    [8[6[1][1][1]][1]]                                          
  H          -7.334692             4.689197            -1.072243            0             0.402573    [1[8[6]]]                                                   
  H          -8.194465             6.918869            -1.815733            0             0.031932    [1[6[8][1][1]]]                                             
  H          -6.801057             7.072376            -0.661411            0             0.031932    [1[6[8][1][1]]]                                             
  H          -6.560077             7.160748            -2.438667            0             0.031932    [1[6[8][1][1]]]                                             
  C          -4.746335             2.880887            -0.234083            1             0.099454    [6[8[1]][1][1][1]]                                          
  O          -3.568935             2.925148             0.647374            1            -0.597823    [8[6[1][1][1]][1]]                                          
  H          -2.796051             2.897875             0.080328            1             0.402573    [1[8[6]]]                                                   
  H          -5.155526             3.875728            -0.398932            1             0.031932    [1[6[8][1][1]]]                                             
  H          -4.485468             2.291806            -1.159059            1             0.031932    [1[6[8][1][1]]]                                             
  H          -5.556382             2.300064             0.263460            1             0.031932    [1[6[8][1][1]]]                                             
