12

  C           8.125646             0.140868             0.205538            0             0.099454    [6[8[1]][1][1][1]]                                          
  O           9.020085             0.985751             0.913121            0            -0.597823    [8[6[1][1][1]][1]]                                          
  H           8.829592             1.132982             1.835882            0             0.402573    [1[8[6]]]                                                   
  H           7.075105             0.521568             0.141395            0             0.031932    [1[6[8][1][1]]]                                             
  H           8.639908            -0.057721            -0.755773            0             0.031932    [1[6[8][1][1]]]                                             
  H           8.148752            -0.882839             0.640323            0             0.031932    [1[6[8][1][1]]]                                             
  C           10.513409           -2.443197             4.555221            1             0.099454    [6[8[1]][1][1][1]]                                          
  O           9.590248            -1.465275             4.817014            1            -0.597823    [8[6[1][1][1]][1]]                                          
  H           9.521846            -0.879403             4.054559            1             0.402573    [1[8[6]]]                                                   
  H           10.702406           -3.145262             5.437291            1             0.031932    [1[6[8][1][1]]]                                             
  H           10.226027           -3.121277             3.698400            1             0.031932    [1[6[8][1][1]]]                                             
  H           11.448458           -1.960485             4.280155            1             0.031932    [1[6[8][1][1]]]                                             
