12

  C          -5.763177             10.794706            6.945043            0             0.099454    [6[8[1]][1][1][1]]                                          
  O          -5.893133             10.454738            8.266319            0            -0.597823    [8[6[1][1][1]][1]]                                          
  H          -6.478443             11.113643            8.738808            0             0.402573    [1[8[6]]]                                                   
  H          -6.778517             10.830846            6.337616            0             0.031932    [1[6[8][1][1]]]                                             
  H          -5.163623             11.696294            6.813743            0             0.031932    [1[6[8][1][1]]]                                             
  H          -5.224453             9.985906             6.412803            0             0.031932    [1[6[8][1][1]]]                                             
  C          -2.556372             10.486308            8.852101            1             0.099454    [6[8[1]][1][1][1]]                                          
  O          -1.194580             10.615221            9.108786            1            -0.597823    [8[6[1][1][1]][1]]                                          
  H          -1.253816             10.952728            9.987815            1             0.402573    [1[8[6]]]                                                   
  H          -3.170197             10.257976            9.700759            1             0.031932    [1[6[8][1][1]]]                                             
  H          -2.891611             11.454878            8.371440            1             0.031932    [1[6[8][1][1]]]                                             
  H          -2.706511             9.691186             8.206647            1             0.031932    [1[6[8][1][1]]]                                             
