12

  C           8.855435             2.500085            -1.398292            0             0.099454    [6[8[1]][1][1][1]]                                          
  O           8.460156             1.355056            -0.672985            0            -0.597823    [8[6[1][1][1]][1]]                                          
  H           9.255421             1.118995            -0.121987            0             0.402573    [1[8[6]]]                                                   
  H           9.214119             3.364614            -0.741264            0             0.031932    [1[6[8][1][1]]]                                             
  H           9.646805             2.202095            -2.062144            0             0.031932    [1[6[8][1][1]]]                                             
  H           8.024161             2.826217            -2.019382            0             0.031932    [1[6[8][1][1]]]                                             
  C           9.366187             0.624596            -5.339413            1             0.099454    [6[8[1]][1][1][1]]                                          
  O           10.301075            0.533873            -6.427278            1            -0.597823    [8[6[1][1][1]][1]]                                          
  H           10.001555            1.286976            -6.961508            1             0.402573    [1[8[6]]]                                                   
  H           8.946661            -0.335658            -5.017299            1             0.031932    [1[6[8][1][1]]]                                             
  H           9.898062             0.986266            -4.445433            1             0.031932    [1[6[8][1][1]]]                                             
  H           8.551581             1.369687            -5.505726            1             0.031932    [1[6[8][1][1]]]                                             
