6

  C           8.442610            -2.694539            -10.295550           0             0.089063    [6[8[1]][1][1][1]]                                          
  O           8.893716            -1.730356            -11.267304           0            -0.604789    [8[6[1][1][1]][1]]                                          
  H           8.372021            -1.803997            -12.069838           0             0.406250    [1[8[6]]]                                                   
  H           8.085913            -3.614369            -10.685009           0             0.036492    [1[6[8][1][1]]]                                             
  H           9.174335            -2.948121            -9.549247            0             0.036492    [1[6[8][1][1]]]                                             
  H           7.523256            -2.319667            -9.847647            0             0.036492    [1[6[8][1][1]]]                                             
