12

  C           8.560098            -2.673546             8.422270            0             0.099454    [6[8[1]][1][1][1]]                                          
  O           8.250090            -2.701109             9.788705            0            -0.597823    [8[6[1][1][1]][1]]                                          
  H           8.844717            -3.285811             10.224851           0             0.402573    [1[8[6]]]                                                   
  H           9.658630            -2.494390             8.335668            0             0.031932    [1[6[8][1][1]]]                                             
  H           8.219889            -3.530177             7.895463            0             0.031932    [1[6[8][1][1]]]                                             
  H           8.112362            -1.780007             7.980744            0             0.031932    [1[6[8][1][1]]]                                             
  C           8.307011            -7.647958             8.749003            1             0.099454    [6[8[1]][1][1][1]]                                          
  O           7.273924            -7.553112             7.776317            1            -0.597823    [8[6[1][1][1]][1]]                                          
  H           7.664353            -7.568868             6.900975            1             0.402573    [1[8[6]]]                                                   
  H           7.960252            -7.834441             9.762844            1             0.031932    [1[6[8][1][1]]]                                             
  H           9.044794            -8.341468             8.415680            1             0.031932    [1[6[8][1][1]]]                                             
  H           8.861906            -6.732982             8.793555            1             0.031932    [1[6[8][1][1]]]                                             
