6
Indices: 0 1 2 3 4 5
C             3.01141121105632    -1.17989515840015     0.59778278757232    [6[8[1]][1][1][1]]
O             4.39467289087282    -1.12805001480734     0.87430750766285    [8[6[1][1][1]][1]]
H             4.77144290999687    -0.37883331412729     0.41218405832724    [1[8[6]]]
H             2.80643427848131    -1.31896487338191    -0.46934966754310    [1[6[8][1][1]]]
H             2.61163205700641    -2.04026497492780     1.13589836658602    [1[6[8][1][1]]]
H             2.48475719517106    -0.28449111368136     0.94565888378341    [1[6[8][1][1]]]
