12

  C          -2.543772             11.097149           -5.925851            0             0.099454    [6[8[1]][1][1][1]]                                          
  O          -3.388210             10.718351           -4.863969            0            -0.597823    [8[6[1][1][1]][1]]                                          
  H          -2.857181             10.590265           -4.086998            0             0.402573    [1[8[6]]]                                                   
  H          -3.183957             11.399977           -6.794502            0             0.031932    [1[6[8][1][1]]]                                             
  H          -2.030645             11.987127           -5.722639            0             0.031932    [1[6[8][1][1]]]                                             
  H          -1.844225             10.332951           -6.223363            0             0.031932    [1[6[8][1][1]]]                                             
  C           0.134513             7.144348            -3.210904            1             0.099454    [6[8[1]][1][1][1]]                                          
  O          -0.239488             8.467683            -3.622832            1            -0.597823    [8[6[1][1][1]][1]]                                          
  H           0.037674             8.550435            -4.525159            1             0.402573    [1[8[6]]]                                                   
  H           1.205969             7.223924            -3.176807            1             0.031932    [1[6[8][1][1]]]                                             
  H          -0.221156             7.001328            -2.178537            1             0.031932    [1[6[8][1][1]]]                                             
  H          -0.166492             6.394879            -3.883738            1             0.031932    [1[6[8][1][1]]]                                             
