12

  C           5.916145             7.599752            -3.115480            0             0.099454    [6[8[1]][1][1][1]]                                          
  O           6.303187             6.405109            -3.797141            0            -0.597823    [8[6[1][1][1]][1]]                                          
  H           6.313995             5.742929            -3.113214            0             0.402573    [1[8[6]]]                                                   
  H           6.562852             7.866482            -2.246742            0             0.031932    [1[6[8][1][1]]]                                             
  H           5.963492             8.428625            -3.817606            0             0.031932    [1[6[8][1][1]]]                                             
  H           4.933177             7.588969            -2.693862            0             0.031932    [1[6[8][1][1]]]                                             
  C           2.132562             6.857292            -0.457491            1             0.099454    [6[8[1]][1][1][1]]                                          
  O           1.974471             5.493375            -0.854099            1            -0.597823    [8[6[1][1][1]][1]]                                          
  H           1.139271             5.180348            -0.609880            1             0.402573    [1[8[6]]]                                                   
  H           1.193411             7.360740            -0.596032            1             0.031932    [1[6[8][1][1]]]                                             
  H           2.479506             6.892604             0.618237            1             0.031932    [1[6[8][1][1]]]                                             
  H           2.840056             7.425782            -1.091816            1             0.031932    [1[6[8][1][1]]]                                             
