12

  C          -1.759558            -3.697240             10.473655           0             0.099454    [6[8[1]][1][1][1]]                                          
  O          -1.814703            -2.791501             9.446395            0            -0.597823    [8[6[1][1][1]][1]]                                          
  H          -1.493921            -1.963915             9.817831            0             0.402573    [1[8[6]]]                                                   
  H          -0.839036            -3.765161             10.942798           0             0.031932    [1[6[8][1][1]]]                                             
  H          -2.437705            -3.484567             11.215743           0             0.031932    [1[6[8][1][1]]]                                             
  H          -1.906414            -4.658250             10.028213           0             0.031932    [1[6[8][1][1]]]                                             
  C          -2.447837            -9.221509             10.206205           1             0.099454    [6[8[1]][1][1][1]]                                          
  O          -2.766401            -8.434773             11.247608           1            -0.597823    [8[6[1][1][1]][1]]                                          
  H          -2.727768            -8.932080             12.065945           1             0.402573    [1[8[6]]]                                                   
  H          -2.954325            -8.912146             9.262412            1             0.031932    [1[6[8][1][1]]]                                             
  H          -1.337661            -9.280567             10.010967           1             0.031932    [1[6[8][1][1]]]                                             
  H          -2.763479            -10.252030            10.443691           1             0.031932    [1[6[8][1][1]]]                                             
