21

C  2.65219000           1.86921000          -0.43721000         
C  3.57006000           0.81783000           0.18869000         
C  2.72285000          -0.13757000           1.04931000         
O  4.24851000           0.16752000          -0.87806000         
C  5.17160000          -0.84072000          -0.48627000         
C  5.76459000          -1.42992000          -1.76707000         
C  6.31558000          -0.31189000           0.39800000         
H  2.11552000           2.44065000           0.35020000         
H  1.90621000           1.38550000          -1.10442000         
H  3.25294000           2.58402000          -1.03928000         
H  4.28208000           1.38011000           0.82881000         
H  1.99683000          -0.69235000           0.41790000         
H  2.16538000           0.43884000           1.81836000         
H  3.35908000          -0.86039000           1.59825000         
H  4.65154000          -1.68059000           0.02044000         
H  6.47061000          -2.25434000          -1.52922000         
H  6.30469000          -0.64623000          -2.34132000         
H  4.95269000          -1.83881000          -2.40577000         
H  6.85110000           0.51742000          -0.11095000         
H  7.03714000          -1.12913000           0.61264000         
H  5.93952000           0.04185000           1.37877000         
