12

  C          -2.030269            -0.860094             4.701773            0             0.099454    [6[8[1]][1][1][1]]                                          
  O          -1.560259            -1.727254             3.739333            0            -0.597823    [8[6[1][1][1]][1]]                                          
  H          -2.090679            -1.511563             2.970343            0             0.402573    [1[8[6]]]                                                   
  H          -3.112571            -0.850576             4.889874            0             0.031932    [1[6[8][1][1]]]                                             
  H          -1.502015            -1.055243             5.669747            0             0.031932    [1[6[8][1][1]]]                                             
  H          -1.782010             0.256352             4.478952            0             0.031932    [1[6[8][1][1]]]                                             
  C          -5.099899            -0.314163             2.273971            1             0.099454    [6[8[1]][1][1][1]]                                          
  O          -4.169031            -1.341223             2.297468            1            -0.597823    [8[6[1][1][1]][1]]                                          
  H          -3.967029            -1.630792             1.383608            1             0.402573    [1[8[6]]]                                                   
  H          -4.650917             0.664407             1.983989            1             0.031932    [1[6[8][1][1]]]                                             
  H          -5.904849            -0.446509             1.523370            1             0.031932    [1[6[8][1][1]]]                                             
  H          -5.640213            -0.184676             3.176502            1             0.031932    [1[6[8][1][1]]]                                             
