12

  C          -0.048541             5.994055             0.000767            0             0.099454    [6[8[1]][1][1][1]]                                          
  O          -1.413549             5.528168            -0.061910            0            -0.597823    [8[6[1][1][1]][1]]                                          
  H          -1.802674             6.109435            -0.721809            0             0.402573    [1[8[6]]]                                                   
  H           0.575472             5.526233             0.758967            0             0.031932    [1[6[8][1][1]]]                                             
  H           0.545849             5.744248            -0.922134            0             0.031932    [1[6[8][1][1]]]                                             
  H          -0.065551             7.054633             0.174694            0             0.031932    [1[6[8][1][1]]]                                             
  C          -4.355825             3.684646            -0.788535            1             0.099454    [6[8[1]][1][1][1]]                                          
  O          -3.446795             3.823115             0.278876            1            -0.597823    [8[6[1][1][1]][1]]                                          
  H          -2.672503             4.139131            -0.019758            1             0.402573    [1[8[6]]]                                                   
  H          -4.056790             2.832902            -1.405011            1             0.031932    [1[6[8][1][1]]]                                             
  H          -5.318373             3.372870            -0.422924            1             0.031932    [1[6[8][1][1]]]                                             
  H          -4.425202             4.594607            -1.357747            1             0.031932    [1[6[8][1][1]]]                                             
