12

  C           7.325339             5.251497             0.133177            0             0.099454    [6[8[1]][1][1][1]]                                          
  O           6.504811             4.108082             0.081789            0            -0.597823    [8[6[1][1][1]][1]]                                          
  H           5.631289             4.365463            -0.281375            0             0.402573    [1[8[6]]]                                                   
  H           8.367817             5.088402             0.117534            0             0.031932    [1[6[8][1][1]]]                                             
  H           7.009722             5.937494            -0.695289            0             0.031932    [1[6[8][1][1]]]                                             
  H           6.979847             5.774637             1.076056            0             0.031932    [1[6[8][1][1]]]                                             
  C           10.006193            3.023497             2.387987            1             0.099454    [6[8[1]][1][1][1]]                                          
  O           9.008992             3.597998             3.216723            1            -0.597823    [8[6[1][1][1]][1]]                                          
  H           8.144207             3.307288             2.901018            1             0.402573    [1[8[6]]]                                                   
  H           9.695812             2.898919             1.395559            1             0.031932    [1[6[8][1][1]]]                                             
  H           10.964039            3.566239             2.285630            1             0.031932    [1[6[8][1][1]]]                                             
  H           10.212016            1.968806             2.642863            1             0.031932    [1[6[8][1][1]]]                                             
