12

  C           0.044626             7.336796            -2.000568            0             0.099454    [6[8[1]][1][1][1]]                                          
  O           0.666804             8.379387            -2.767885            0            -0.597823    [8[6[1][1][1]][1]]                                          
  H           1.634866             8.354970            -2.635268            0             0.402573    [1[8[6]]]                                                   
  H           0.688306             6.433786            -1.904531            0             0.031932    [1[6[8][1][1]]]                                             
  H          -0.210121             7.772745            -1.070785            0             0.031932    [1[6[8][1][1]]]                                             
  H          -0.934877             7.018362            -2.489453            0             0.031932    [1[6[8][1][1]]]                                             
  C           1.787189             8.141923            -6.209273            1             0.099454    [6[8[1]][1][1][1]]                                          
  O           1.225959             9.057737            -7.130875            1            -0.597823    [8[6[1][1][1]][1]]                                          
  H           1.591158             9.924854            -6.877070            1             0.402573    [1[8[6]]]                                                   
  H           2.930828             8.116669            -6.320015            1             0.031932    [1[6[8][1][1]]]                                             
  H           1.425929             8.176816            -5.223951            1             0.031932    [1[6[8][1][1]]]                                             
  H           1.494492             7.116921            -6.583028            1             0.031932    [1[6[8][1][1]]]                                             
