12

  C           10.131559           -0.929883            -3.069840            0             0.099454    [6[8[1]][1][1][1]]                                          
  O           8.749478            -0.835584            -3.413896            0            -0.597823    [8[6[1][1][1]][1]]                                          
  H           8.295501            -1.609561            -3.197512            0             0.402573    [1[8[6]]]                                                   
  H           10.881002           -1.133662            -3.916814            0             0.031932    [1[6[8][1][1]]]                                             
  H           10.518113           -0.027949            -2.527007            0             0.031932    [1[6[8][1][1]]]                                             
  H           10.152257           -1.698416            -2.209900            0             0.031932    [1[6[8][1][1]]]                                             
  C           4.533409             0.137027            -4.796207            1             0.099454    [6[8[1]][1][1][1]]                                          
  O           4.436586            -1.244241            -4.528768            1            -0.597823    [8[6[1][1][1]][1]]                                          
  H           5.310152            -1.569002            -4.367743            1             0.402573    [1[8[6]]]                                                   
  H           5.533253             0.291524            -5.098196            1             0.031932    [1[6[8][1][1]]]                                             
  H           3.883806             0.507045            -5.598548            1             0.031932    [1[6[8][1][1]]]                                             
  H           4.424128             0.778533            -3.962578            1             0.031932    [1[6[8][1][1]]]                                             
