12

  C          -6.273322            -9.533329            -8.368384            0             0.099454    [6[8[1]][1][1][1]]                                          
  O          -7.523562            -10.051300           -8.014050            0            -0.597823    [8[6[1][1][1]][1]]                                          
  H          -8.078851            -9.952586            -8.778788            0             0.402573    [1[8[6]]]                                                   
  H          -5.871098            -8.781854            -7.648397            0             0.031932    [1[6[8][1][1]]]                                             
  H          -5.513111            -10.350072           -8.413968            0             0.031932    [1[6[8][1][1]]]                                             
  H          -6.238926            -9.095729            -9.396470            0             0.031932    [1[6[8][1][1]]]                                             
  C          -10.431865           -7.477750            -6.751600            1             0.099454    [6[8[1]][1][1][1]]                                          
  O          -9.758328            -8.725350            -6.439824            1            -0.597823    [8[6[1][1][1]][1]]                                          
  H          -9.338538            -9.047118            -7.218534            1             0.402573    [1[8[6]]]                                                   
  H          -11.368914           -7.722481            -7.383089            1             0.031932    [1[6[8][1][1]]]                                             
  H          -10.707634           -6.859162            -5.857968            1             0.031932    [1[6[8][1][1]]]                                             
  H          -9.774949            -6.808374            -7.376511            1             0.031932    [1[6[8][1][1]]]                                             
