12

  C          -7.605909             2.443021            -5.622041            0             0.099454    [6[8[1]][1][1][1]]                                          
  O          -8.394434             3.474753            -5.066151            0            -0.597823    [8[6[1][1][1]][1]]                                          
  H          -8.746984             3.268596            -4.163043            0             0.402573    [1[8[6]]]                                                   
  H          -6.908455             2.024404            -4.832031            0             0.031932    [1[6[8][1][1]]]                                             
  H          -8.242513             1.688588            -6.000919            0             0.031932    [1[6[8][1][1]]]                                             
  H          -7.027775             2.828739            -6.512241            0             0.031932    [1[6[8][1][1]]]                                             
  C          -5.012732             4.651737            -4.015420            1             0.099454    [6[8[1]][1][1][1]]                                          
  O          -5.313746             6.068341            -3.824211            1            -0.597823    [8[6[1][1][1]][1]]                                          
  H          -5.792739             6.296180            -4.612807            1             0.402573    [1[8[6]]]                                                   
  H          -4.509524             4.441952            -4.946995            1             0.031932    [1[6[8][1][1]]]                                             
  H          -4.294382             4.316787            -3.213413            1             0.031932    [1[6[8][1][1]]]                                             
  H          -5.939629             4.108769            -3.953471            1             0.031932    [1[6[8][1][1]]]                                             
