12

  C           2.018643             1.948399             1.332270            0             0.099454    [6[8[1]][1][1][1]]                                          
  O           3.332165             2.287138             1.756769            0            -0.597823    [8[6[1][1][1]][1]]                                          
  H           3.311944             2.537674             2.703339            0             0.402573    [1[8[6]]]                                                   
  H           2.054708             1.402109             0.362876            0             0.031932    [1[6[8][1][1]]]                                             
  H           1.485087             1.342053             2.106728            0             0.031932    [1[6[8][1][1]]]                                             
  H           1.462710             2.875440             1.361166            0             0.031932    [1[6[8][1][1]]]                                             
  C           4.262847             0.709514             5.516234            1             0.099454    [6[8[1]][1][1][1]]                                          
  O           3.249038             1.221760             4.607938            1            -0.597823    [8[6[1][1][1]][1]]                                          
  H           2.759917             0.525777             4.274813            1             0.402573    [1[8[6]]]                                                   
  H           5.064640             1.369477             5.723628            1             0.031932    [1[6[8][1][1]]]                                             
  H           3.836143             0.461897             6.456810            1             0.031932    [1[6[8][1][1]]]                                             
  H           4.748013            -0.205630             5.211231            1             0.031932    [1[6[8][1][1]]]                                             
