12

  C           4.271779             4.712240             5.343485            0             0.099454    [6[8[1]][1][1][1]]                                          
  O           4.861457             5.690898             4.454410            0            -0.597823    [8[6[1][1][1]][1]]                                          
  H           4.587557             5.662843             3.570705            0             0.402573    [1[8[6]]]                                                   
  H           4.713760             3.664029             5.121006            0             0.031932    [1[6[8][1][1]]]                                             
  H           4.705710             4.923602             6.335144            0             0.031932    [1[6[8][1][1]]]                                             
  H           3.190266             4.808637             5.377588            0             0.031932    [1[6[8][1][1]]]                                             
  C           8.311484             3.143413             3.481825            1             0.099454    [6[8[1]][1][1][1]]                                          
  O           8.056739             1.722813             3.508801            1            -0.597823    [8[6[1][1][1]][1]]                                          
  H           7.759695             1.512041             4.395008            1             0.402573    [1[8[6]]]                                                   
  H           8.607157             3.622186             4.397042            1             0.031932    [1[6[8][1][1]]]                                             
  H           9.109676             3.424795             2.754939            1             0.031932    [1[6[8][1][1]]]                                             
  H           7.404429             3.636642             3.164490            1             0.031932    [1[6[8][1][1]]]                                             
