12

  C           9.581174            -0.124281             1.928332            0             0.099454    [6[8[1]][1][1][1]]                                          
  O           10.051812            1.201590             2.096946            0            -0.597823    [8[6[1][1][1]][1]]                                          
  H           10.500482            1.227346             2.926965            0             0.402573    [1[8[6]]]                                                   
  H           9.334964            -0.559037             2.868613            0             0.031932    [1[6[8][1][1]]]                                             
  H           8.723279            -0.226228             1.277449            0             0.031932    [1[6[8][1][1]]]                                             
  H           10.398617           -0.819547             1.598314            0             0.031932    [1[6[8][1][1]]]                                             
  C           8.513817             3.675508            -0.383568            1             0.099454    [6[8[1]][1][1][1]]                                          
  O           9.143687             3.578404             0.864481            1            -0.597823    [8[6[1][1][1]][1]]                                          
  H           9.463190             2.722025             0.901324            1             0.402573    [1[8[6]]]                                                   
  H           8.877662             2.865182            -1.066605            1             0.031932    [1[6[8][1][1]]]                                             
  H           7.428917             3.486082            -0.322136            1             0.031932    [1[6[8][1][1]]]                                             
  H           8.817236             4.613234            -0.872877            1             0.031932    [1[6[8][1][1]]]                                             
