12

  C           7.210825             8.632815            -10.573525           0             0.099454    [6[8[1]][1][1][1]]                                          
  O           6.489195             9.621712            -11.265290           0            -0.597823    [8[6[1][1][1]][1]]                                          
  H           5.643977             9.593942            -10.878869           0             0.402573    [1[8[6]]]                                                   
  H           8.271137             8.672598            -10.791634           0             0.031932    [1[6[8][1][1]]]                                             
  H           7.248490             8.656114            -9.461360            0             0.031932    [1[6[8][1][1]]]                                             
  H           6.873795             7.608064            -10.845225           0             0.031932    [1[6[8][1][1]]]                                             
  C           10.113427            10.935619           -6.481662            1             0.099454    [6[8[1]][1][1][1]]                                          
  O           10.630876            10.295021           -5.295632            1            -0.597823    [8[6[1][1][1]][1]]                                          
  H           10.413318            10.834888           -4.519883            1             0.402573    [1[8[6]]]                                                   
  H           9.238122             11.581264           -6.278384            1             0.031932    [1[6[8][1][1]]]                                             
  H           10.971074            11.496609           -6.993023            1             0.031932    [1[6[8][1][1]]]                                             
  H           9.793802             10.043394           -7.079421            1             0.031932    [1[6[8][1][1]]]                                             
