12

  C          -9.935633            -1.088503             1.284899            0             0.099454    [6[8[1]][1][1][1]]                                          
  O          -11.033869           -1.960237             1.345496            0            -0.597823    [8[6[1][1][1]][1]]                                          
  H          -11.887862           -1.623931             1.666152            0             0.402573    [1[8[6]]]                                                   
  H          -8.996411            -1.368978             1.817904            0             0.031932    [1[6[8][1][1]]]                                             
  H          -9.676983            -0.896278             0.194077            0             0.031932    [1[6[8][1][1]]]                                             
  H          -10.219109           -0.076535             1.690126            0             0.031932    [1[6[8][1][1]]]                                             
  C          -6.369211             3.163556             0.285240            1             0.099454    [6[8[1]][1][1][1]]                                          
  O          -6.227927             4.268699             1.167217            1            -0.597823    [8[6[1][1][1]][1]]                                          
  H          -7.087048             4.498600             1.550799            1             0.402573    [1[8[6]]]                                                   
  H          -7.055003             2.375268             0.723441            1             0.031932    [1[6[8][1][1]]]                                             
  H          -6.909121             3.466641            -0.665375            1             0.031932    [1[6[8][1][1]]]                                             
  H          -5.436438             2.612705             0.110659            1             0.031932    [1[6[8][1][1]]]                                             
