6
Indices: 0 1 2 3 4 5
C             3.01081757159979    -1.18091586627424     0.59839410692785    [6[8[1]][1][1][1]]
O             4.39516289580442    -1.12803129570602     0.87440520496196    [8[6[1][1][1]][1]]
H             4.77268600686860    -0.37900315692736     0.41259080258296    [1[8[6]]]
H             2.80594427354971    -1.31898359248323    -0.46944736484221    [1[6[8][1][1]]]
H             2.61114205207481    -2.04028369402912     1.13580066928691    [1[6[8][1][1]]]
H             2.48426719023946    -0.28450983278268     0.94556118648430    [1[6[8][1][1]]]
