12

  C           3.233414            -3.571402             3.480505            0             0.099454    [6[8[1]][1][1][1]]                                          
  O           2.255676            -2.570167             3.219103            0            -0.597823    [8[6[1][1][1]][1]]                                          
  H           1.566001            -2.787145             3.844910            0             0.402573    [1[8[6]]]                                                   
  H           2.766447            -4.558397             3.518261            0             0.031932    [1[6[8][1][1]]]                                             
  H           4.083400            -3.498807             2.869667            0             0.031932    [1[6[8][1][1]]]                                             
  H           3.649298            -3.340378             4.517966            0             0.031932    [1[6[8][1][1]]]                                             
  C           6.544032            -0.473077             3.712911            1             0.099454    [6[8[1]][1][1][1]]                                          
  O           7.906508            -0.325117             4.182643            1            -0.597823    [8[6[1][1][1]][1]]                                          
  H           8.557743            -0.777407             3.591954            1             0.402573    [1[8[6]]]                                                   
  H           6.299232             0.232570             2.974493            1             0.031932    [1[6[8][1][1]]]                                             
  H           6.490442            -1.469732             3.134085            1             0.031932    [1[6[8][1][1]]]                                             
  H           5.800592            -0.470221             4.596880            1             0.031932    [1[6[8][1][1]]]                                             
