12

  C          -3.152113            -1.685180             5.511687            0             0.099454    [6[8[1]][1][1][1]]                                          
  O          -3.578452            -2.644021             4.578806            0            -0.597823    [8[6[1][1][1]][1]]                                          
  H          -2.831220            -3.224825             4.420491            0             0.402573    [1[8[6]]]                                                   
  H          -2.231712            -1.127083             5.128433            0             0.031932    [1[6[8][1][1]]]                                             
  H          -3.887088            -1.022022             5.889255            0             0.031932    [1[6[8][1][1]]]                                             
  H          -2.718246            -2.180419             6.352590            0             0.031932    [1[6[8][1][1]]]                                             
  C          -4.521975            -6.233287             5.954755            1             0.099454    [6[8[1]][1][1][1]]                                          
  O          -4.879138            -6.814400             7.255290            1            -0.597823    [8[6[1][1][1]][1]]                                          
  H          -4.346958            -6.453633             7.886201            1             0.402573    [1[8[6]]]                                                   
  H          -3.499010            -6.592115             5.620698            1             0.031932    [1[6[8][1][1]]]                                             
  H          -5.202318            -6.713222             5.198677            1             0.031932    [1[6[8][1][1]]]                                             
  H          -4.591454            -5.146394             5.966266            1             0.031932    [1[6[8][1][1]]]                                             
