12

  C           2.907116            -9.187198            -6.133131            0             0.099454    [6[8[1]][1][1][1]]                                          
  O           2.091800            -9.982552            -5.330885            0            -0.597823    [8[6[1][1][1]][1]]                                          
  H           2.195654            -9.664146            -4.384575            0             0.402573    [1[8[6]]]                                                   
  H           3.968683            -9.348297            -5.867276            0             0.031932    [1[6[8][1][1]]]                                             
  H           2.841180            -9.300509            -7.224873            0             0.031932    [1[6[8][1][1]]]                                             
  H           2.736581            -8.144323            -5.972114            0             0.031932    [1[6[8][1][1]]]                                             
  C           1.851827            -7.038614            -3.310081            1             0.099454    [6[8[1]][1][1][1]]                                          
  O           2.407402            -8.242057            -2.933763            1            -0.597823    [8[6[1][1][1]][1]]                                          
  H           3.246962            -8.231828            -2.504413            1             0.402573    [1[8[6]]]                                                   
  H           1.582758            -6.546518            -2.366470            1             0.031932    [1[6[8][1][1]]]                                             
  H           2.475274            -6.384976            -3.821352            1             0.031932    [1[6[8][1][1]]]                                             
  H           0.991860            -7.245917            -3.988238            1             0.031932    [1[6[8][1][1]]]                                             
