12

  C          -2.096116             1.362651            -3.714069            0             0.099454    [6[8[1]][1][1][1]]                                          
  O          -1.653000             2.524179            -4.317174            0            -0.597823    [8[6[1][1][1]][1]]                                          
  H          -1.444100             3.157896            -3.600803            0             0.402573    [1[8[6]]]                                                   
  H          -1.388523             0.806716            -3.030014            0             0.031932    [1[6[8][1][1]]]                                             
  H          -3.077310             1.420086            -3.206591            0             0.031932    [1[6[8][1][1]]]                                             
  H          -2.228905             0.632296            -4.545522            0             0.031932    [1[6[8][1][1]]]                                             
  C           1.020687             2.972538            -0.782984            1             0.099454    [6[8[1]][1][1][1]]                                          
  O           0.345693             2.531546            -1.988019            1            -0.597823    [8[6[1][1][1]][1]]                                          
  H          -0.473600             3.038289            -2.076340            1             0.402573    [1[8[6]]]                                                   
  H           1.187707             2.209235            -0.070315            1             0.031932    [1[6[8][1][1]]]                                             
  H           2.030811             3.457052            -0.969221            1             0.031932    [1[6[8][1][1]]]                                             
  H           0.326062             3.697414            -0.317371            1             0.031932    [1[6[8][1][1]]]                                             
