12

  C           0.388477             4.100360             7.695616            0             0.099454    [6[8[1]][1][1][1]]                                          
  O          -0.947411             4.692757             7.944071            0            -0.597823    [8[6[1][1][1]][1]]                                          
  H          -1.091817             5.388982             7.292805            0             0.402573    [1[8[6]]]                                                   
  H           1.164795             4.910124             7.802517            0             0.031932    [1[6[8][1][1]]]                                             
  H           0.723529             3.246645             8.329768            0             0.031932    [1[6[8][1][1]]]                                             
  H           0.383064             3.620852             6.668489            0             0.031932    [1[6[8][1][1]]]                                             
  C           2.491307             5.850724             10.084084           1             0.099454    [6[8[1]][1][1][1]]                                          
  O           3.225745             4.813369             9.407061            1            -0.597823    [8[6[1][1][1]][1]]                                          
  H           2.985207             3.936808             9.698479            1             0.402573    [1[8[6]]]                                                   
  H           2.166318             6.630033             9.377900            1             0.031932    [1[6[8][1][1]]]                                             
  H           1.538631             5.439613             10.436970           1             0.031932    [1[6[8][1][1]]]                                             
  H           3.058017             6.190104             10.986952           1             0.031932    [1[6[8][1][1]]]                                             
