12

  C          -6.083136             5.885562             7.272078            0             0.099454    [6[8[1]][1][1][1]]                                          
  O          -5.275935             6.974609             7.448054            0            -0.597823    [8[6[1][1][1]][1]]                                          
  H          -4.771461             7.052453             6.604360            0             0.402573    [1[8[6]]]                                                   
  H          -6.995972             5.890797             7.959285            0             0.031932    [1[6[8][1][1]]]                                             
  H          -6.525911             5.758707             6.203153            0             0.031932    [1[6[8][1][1]]]                                             
  H          -5.455596             4.991916             7.471403            0             0.031932    [1[6[8][1][1]]]                                             
  C          -2.669499             7.020750             9.637858            1             0.099454    [6[8[1]][1][1][1]]                                          
  O          -1.999993             6.537438             10.806009           1            -0.597823    [8[6[1][1][1]][1]]                                          
  H          -1.723550             7.340090             11.326019           1             0.402573    [1[8[6]]]                                                   
  H          -3.078650             6.164774             9.039499            1             0.031932    [1[6[8][1][1]]]                                             
  H          -3.561585             7.594151             9.931221            1             0.031932    [1[6[8][1][1]]]                                             
  H          -2.019952             7.725249             9.114997            1             0.031932    [1[6[8][1][1]]]                                             
