12

  C           1.787189             8.141923            -6.209273            0             0.099454    [6[8[1]][1][1][1]]                                          
  O           1.225959             9.057737            -7.130875            0            -0.597823    [8[6[1][1][1]][1]]                                          
  H           1.591158             9.924854            -6.877070            0             0.402573    [1[8[6]]]                                                   
  H           2.930828             8.116669            -6.320015            0             0.031932    [1[6[8][1][1]]]                                             
  H           1.425929             8.176816            -5.223951            0             0.031932    [1[6[8][1][1]]]                                             
  H           1.494492             7.116921            -6.583028            0             0.031932    [1[6[8][1][1]]]                                             
  C          -1.382315             7.656714            -9.403064            1             0.099454    [6[8[1]][1][1][1]]                                          
  O          -1.535504             8.361773            -8.223620            1            -0.597823    [8[6[1][1][1]][1]]                                          
  H          -0.695986             8.256072            -7.674836            1             0.402573    [1[8[6]]]                                                   
  H          -2.134105             7.942589            -10.050594           1             0.031932    [1[6[8][1][1]]]                                             
  H          -0.437840             7.947072            -9.867377            1             0.031932    [1[6[8][1][1]]]                                             
  H          -1.315396             6.559061            -9.387917            1             0.031932    [1[6[8][1][1]]]                                             
