6
Coordinates from ORCA-job scan-reverse_geo_opt
  C   2.98796747725702     -1.06555402148311      0.55569105458546
  O   4.26815297601855     -0.47397538141124      0.65888616797293
  H   4.93078409200831     -1.16282551664970      0.67718183524100
  H   2.63016017786768     -1.05758232284732     -0.47955750962488
  H   2.97143321025053     -2.09389936175736      0.92773531170516
  H   2.29250206659792     -0.47785339585128      1.15756314012032
