6
Coordinates from ORCA-job scan-reverse_geo_opt
  C   2.98917470723734     -1.07736812114058      0.58811882259965
  O   4.26223694059040     -0.51625787631326      0.82743041110655
  H   4.92956395240631     -1.10461939292275      0.47359201747946
  H   2.73314705593274     -1.08186596229242     -0.47778276506458
  H   2.90432308602438     -2.09783143210337      0.97793408879508
  H   2.26255425780884     -0.45374721522763      1.10820742508384
