6
Coordinates from ORCA-job scan-reverse_geo_opt
  C   2.98960027686730     -1.08302075439546      0.59877585805601
  O   4.26567333591978     -0.54617900276103      0.87448707674067
  H   4.92442888997257     -1.06672239636198      0.41419999192498
  H   2.76641689310462     -1.09270685908121     -0.47417078086380
  H   2.87504630422190     -2.10023665795875      0.99091000934098
  H   2.25983429991383     -0.44282432944157      1.09329784480117
