6
Coordinates from ORCA-job scan-reverse_geo_opt
  C   3.01540012005657     -1.17905782724908      0.50976476459231
  O   4.42254047858868     -1.08850276930256      0.39223188920692
  H   4.74591213149186     -0.41541939267773      0.98823581810952
  H   2.53184673816302     -0.81894742304203     -0.40346772816715
  H   2.73577837050236     -2.22529060175111      0.65473517725937
  H   2.62952216119754     -0.60447198597750      1.35600007899903
