6
Coordinates from ORCA-job scan-reverse_geo_opt
  C   3.01616062520412     -1.18306020242369      0.51836046880227
  O   4.42708420442568     -1.12770233537345      0.43889336513183
  H   4.73974795907208     -0.37117225335025      0.93239516779181
  H   2.55524792643193     -0.79956662816511     -0.39809861353160
  H   2.71949638821284     -2.22728397971679      0.63455082924328
  H   2.62326289665338     -0.62290460097071      1.37139878256241
