6
Coordinates from ORCA-job scan-reverse_geo_opt
  C   3.01672421729189     -1.18642627155821      0.52844860070491
  O   4.42922763421361     -1.15885117025009      0.48986675686213
  H   4.73560173305790     -0.33639900011260      0.86993722234057
  H   2.58109237638071     -0.77967406128091     -0.39112129528655
  H   2.70723892002395     -2.22902401286870      0.61438980566419
  H   2.61111511903197     -0.64131548392950      1.38597890971475
