6
Coordinates from ORCA-job scan-reverse_geo_opt
  C   3.00784352922145     -1.13700449876699      0.49550041556693
  O   4.36784475924273     -0.82729103914192      0.27395159493202
  H   4.80457478398496     -0.72920272342802      1.11985561214104
  H   2.47005041206044     -0.91814996137093     -0.42693590739555
  H   2.86240013762372     -2.19446648814960      0.74421414705813
  H   2.56828637786670     -0.52557528914254      1.29091413769742
