6
Coordinates from ORCA-job scan-reverse_geo_opt
  C   3.00669329211552     -1.16755395673847      0.61686731186582
  O   4.37421974410581     -1.05013498707382      0.95006238109037
  H   4.79927504419551     -0.47433584878342      0.31482733369152
  H   2.84890385828089     -1.27021217964960     -0.46188342021481
  H   2.62537107108708     -2.06268600900889      1.10779212383836
  H   2.42653699021518     -0.30676701874580      0.96983426972875
