6
Coordinates from ORCA-job scan-reverse_geo_opt
  C   2.99897758367046     -1.09827466001633      0.50577748171110
  O   4.33036025250092     -0.67055280357500      0.31156624821963
  H   4.85132188518031     -0.92902526757983      1.07198581595114
  H   2.48087991789753     -0.97897969777107     -0.44541147769648
  H   2.94043821765496     -2.15470613333709      0.79062749910715
  H   2.47902214309583     -0.50015143772067      1.26295443270745
