6
Coordinates from ORCA-job scan-reverse_geo_opt
  C   2.99056302310036     -1.07010343974087      0.52303895179362
  O   4.29982171479095     -0.54392276655002      0.42593791089541
  H   4.89473163470825     -1.08634090268065      0.94104602879077
  H   2.52474016556369     -1.02529707862107     -0.46313954413043
  H   2.98715696519102     -2.11581337533721      0.84440954507343
  H   2.38398649664573     -0.49021243707019      1.22620710757720
