6
Coordinates from ORCA-job scan-reverse_geo_opt
  C   3.01335871820106     -1.16749913926972      0.49819236139454
  O   4.40572141706055     -0.99168752286249      0.31867080039205
  H   4.76424347622353     -0.52771838727340      1.07305837933908
  H   2.49520599125585     -0.85727205304216     -0.41194397967208
  H   2.77959431118061     -2.21857062496877      0.69358548428359
  H   2.62287608607842     -0.56894227258347      1.32593695426283
