6
Coordinates from ORCA-job scan-reverse_geo_opt
  C   2.99013940017719     -1.08948928563520      0.60854735933570
  O   4.27180928409952     -0.58291617296065      0.91574710288857
  H   4.91750885442062     -1.02122493463162      0.36140156862944
  H   2.79678073141989     -1.10504560052438     -0.46961650649895
  H   2.84397969465628     -2.10223136402454      1.00247284745965
  H   2.26078203522652     -0.43078264222361      1.07894762818558
