6
Coordinates from ORCA-job scan-reverse_geo_opt
  C   3.00516198303540     -1.12414100237762      0.49782602904645
  O   4.35466620450464     -0.77305867379935      0.27756604697151
  H   4.81999959245951     -0.79805278538987      1.11389246576104
  H   2.46976930164867     -0.93906196352237     -0.43295770381687
  H   2.89038146379312     -2.18236979444299      0.75958535222701
  H   2.54102145455868     -0.51500578046781      1.28158780981088
