6
Coordinates from ORCA-job scan-reverse_geo_opt
  C   2.98777159056022     -1.06377074164101      0.54615755292136
  O   4.27451746335863     -0.47778972107949      0.59752882338423
  H   4.92556610293450     -1.16081136919632      0.74793611378149
  H   2.59906495197079     -1.05101241181986     -0.47697023066829
  H   2.98419540014906     -2.09566351645047      0.90746062801180
  H   2.30988449102680     -0.48264223981285      1.17538711256941
