12

  C          -2.795325             9.217840             5.555766            0             0.099454    [6[8[1]][1][1][1]]                                          
  O          -3.946272             9.686863             6.213946            0            -0.597823    [8[6[1][1][1]][1]]                                          
  H          -3.969267             9.351075             7.120477            0             0.402573    [1[8[6]]]                                                   
  H          -2.991524             9.209093             4.464861            0             0.031932    [1[6[8][1][1]]]                                             
  H          -1.885058             9.769403             5.855998            0             0.031932    [1[6[8][1][1]]]                                             
  H          -2.593840             8.207868             5.831886            0             0.031932    [1[6[8][1][1]]]                                             
  C          -8.141431             10.120982            5.609422            1             0.099454    [6[8[1]][1][1][1]]                                          
  O          -6.883457             9.926488             5.013537            1            -0.597823    [8[6[1][1][1]][1]]                                          
  H          -6.746002             9.087086             4.583543            1             0.402573    [1[8[6]]]                                                   
  H          -8.833033             10.492227            4.872045            1             0.031932    [1[6[8][1][1]]]                                             
  H          -8.543352             9.177834             6.082713            1             0.031932    [1[6[8][1][1]]]                                             
  H          -8.084201             10.899987            6.355994            1             0.031932    [1[6[8][1][1]]]                                             
