12

  C           0.661193             3.421647             2.670552            0             0.099454    [6[8[1]][1][1][1]]                                          
  O           2.005955             3.170968             2.578442            0            -0.597823    [8[6[1][1][1]][1]]                                          
  H           2.290748             2.485866             3.173461            0             0.402573    [1[8[6]]]                                                   
  H           0.335738             4.235484             1.992829            0             0.031932    [1[6[8][1][1]]]                                             
  H          -0.008043             2.596136             2.424679            0             0.031932    [1[6[8][1][1]]]                                             
  H           0.402929             3.729779             3.674865            0             0.031932    [1[6[8][1][1]]]                                             
  C           5.018682             3.647154             2.266529            1             0.099454    [6[8[1]][1][1][1]]                                          
  O           4.344760             3.389571             1.100863            1            -0.597823    [8[6[1][1][1]][1]]                                          
  H           3.404297             3.200617             1.319677            1             0.402573    [1[8[6]]]                                                   
  H           5.043372             2.728457             2.908457            1             0.031932    [1[6[8][1][1]]]                                             
  H           6.070344             3.937796             2.139085            1             0.031932    [1[6[8][1][1]]]                                             
  H           4.514807             4.440137             2.832299            1             0.031932    [1[6[8][1][1]]]                                             
