12

  C           2.543895            -7.348491             7.449240            0             0.099454    [6[8[1]][1][1][1]]                                          
  O           2.114794            -6.008798             7.767195            0            -0.597823    [8[6[1][1][1]][1]]                                          
  H           1.167584            -5.999289             7.725169            0             0.402573    [1[8[6]]]                                                   
  H           1.824056            -7.871212             6.835740            0             0.031932    [1[6[8][1][1]]]                                             
  H           3.470852            -7.412637             6.832547            0             0.031932    [1[6[8][1][1]]]                                             
  H           2.527036            -8.011973             8.287322            0             0.031932    [1[6[8][1][1]]]                                             
  C          -1.585481            -5.417352             8.139002            1             0.099454    [6[8[1]][1][1][1]]                                          
  O          -0.400419            -4.728151             8.321004            1            -0.597823    [8[6[1][1][1]][1]]                                          
  H          -0.305728            -4.570493             9.263091            1             0.402573    [1[8[6]]]                                                   
  H          -2.411787            -4.838300             8.517041            1             0.031932    [1[6[8][1][1]]]                                             
  H          -1.681065            -5.646437             7.021647            1             0.031932    [1[6[8][1][1]]]                                             
  H          -1.719806            -6.426538             8.682570            1             0.031932    [1[6[8][1][1]]]                                             
