12

  C           5.267570            -1.081642             8.103618            0             0.099454    [6[8[1]][1][1][1]]                                          
  O           4.867190            -2.109481             8.947615            0            -0.597823    [8[6[1][1][1]][1]]                                          
  H           3.963623            -1.847875             9.170114            0             0.402573    [1[8[6]]]                                                   
  H           5.623439            -0.273538             8.761835            0             0.031932    [1[6[8][1][1]]]                                             
  H           6.051549            -1.305107             7.366669            0             0.031932    [1[6[8][1][1]]]                                             
  H           4.404855            -0.674548             7.564045            0             0.031932    [1[6[8][1][1]]]                                             
  C           5.534605             2.185884             8.156706            1             0.099454    [6[8[1]][1][1][1]]                                          
  O           5.318715             1.865475             6.790076            1            -0.597823    [8[6[1][1][1]][1]]                                          
  H           4.667424             2.424962             6.448115            1             0.402573    [1[8[6]]]                                                   
  H           6.493913             1.733654             8.537385            1             0.031932    [1[6[8][1][1]]]                                             
  H           5.628464             3.268883             8.368282            1             0.031932    [1[6[8][1][1]]]                                             
  H           4.732055             1.903321             8.799930            1             0.031932    [1[6[8][1][1]]]                                             
