12

  C          -2.354992             4.220558            -11.114118           0             0.099454    [6[8[1]][1][1][1]]                                          
  O          -3.266662             5.290288            -11.142796           0            -0.597823    [8[6[1][1][1]][1]]                                          
  H          -4.137291             4.981376            -11.457363           0             0.402573    [1[8[6]]]                                                   
  H          -1.583191             4.453698            -10.358504           0             0.031932    [1[6[8][1][1]]]                                             
  H          -2.862234             3.277000            -10.825924           0             0.031932    [1[6[8][1][1]]]                                             
  H          -1.849931             4.156217            -12.122973           0             0.031932    [1[6[8][1][1]]]                                             
  C          -2.921939             2.194643            -6.480863            1             0.099454    [6[8[1]][1][1][1]]                                          
  O          -2.454339             3.360789            -5.795631            1            -0.597823    [8[6[1][1][1]][1]]                                          
  H          -1.573401             3.488461            -6.159957            1             0.402573    [1[8[6]]]                                                   
  H          -3.965933             2.337422            -6.827205            1             0.031932    [1[6[8][1][1]]]                                             
  H          -2.310556             1.997838            -7.373862            1             0.031932    [1[6[8][1][1]]]                                             
  H          -2.955804             1.298871            -5.886231            1             0.031932    [1[6[8][1][1]]]                                             
