12

  C           8.058946            -9.033042             0.461038            0             0.099454    [6[8[1]][1][1][1]]                                          
  O           8.872390            -8.090761             1.090432            0            -0.597823    [8[6[1][1][1]][1]]                                          
  H           8.823240            -8.265778             1.999192            0             0.402573    [1[8[6]]]                                                   
  H           7.747471            -8.809037            -0.550858            0             0.031932    [1[6[8][1][1]]]                                             
  H           8.601848            -9.949009             0.269711            0             0.031932    [1[6[8][1][1]]]                                             
  H           7.118040            -9.192842             0.968932            0             0.031932    [1[6[8][1][1]]]                                             
  C           9.332024            -7.825781            -3.804788            1             0.099454    [6[8[1]][1][1][1]]                                          
  O           8.953421            -7.722838            -5.139420            1            -0.597823    [8[6[1][1][1]][1]]                                          
  H           8.371526            -8.481379            -5.322820            1             0.402573    [1[8[6]]]                                                   
  H           10.157458           -8.605935            -3.657025            1             0.031932    [1[6[8][1][1]]]                                             
  H           9.700460            -6.873416            -3.434979            1             0.031932    [1[6[8][1][1]]]                                             
  H           8.503247            -8.036935            -3.181149            1             0.031932    [1[6[8][1][1]]]                                             
