12

  C          -9.811344             4.558187             10.207530           0             0.099454    [6[8[1]][1][1][1]]                                          
  O          -8.653833             5.412163             9.985210            0            -0.597823    [8[6[1][1][1]][1]]                                          
  H          -8.166910             5.609681             10.804078           0             0.402573    [1[8[6]]]                                                   
  H          -10.766672            5.084000             10.437990           0             0.031932    [1[6[8][1][1]]]                                             
  H          -10.064099            3.949902             9.357270            0             0.031932    [1[6[8][1][1]]]                                             
  H          -9.652676             3.829172             10.959154           0             0.031932    [1[6[8][1][1]]]                                             
  C          -10.666586            6.170004             7.379040            1             0.099454    [6[8[1]][1][1][1]]                                          
  O          -9.388597             6.730115             7.666832            1            -0.597823    [8[6[1][1][1]][1]]                                          
  H          -9.030855             6.074726             8.273595            1             0.402573    [1[8[6]]]                                                   
  H          -10.579796            5.389328             6.632347            1             0.031932    [1[6[8][1][1]]]                                             
  H          -11.206953            5.813961             8.258117            1             0.031932    [1[6[8][1][1]]]                                             
  H          -11.338197            6.898254             6.829734            1             0.031932    [1[6[8][1][1]]]                                             
