6

  C          -7.846786             9.980089             1.989364            0             0.089063    [6[8[1]][1][1][1]]                                          
  O          -8.974696             10.901015            1.902426            0            -0.604789    [8[6[1][1][1]][1]]                                          
  H          -8.721651             11.620024            2.463232            0             0.406250    [1[8[6]]]                                                   
  H          -7.869643             9.324516             1.111412            0             0.036492    [1[6[8][1][1]]]                                             
  H          -6.845733             10.507244            2.049421            0             0.036492    [1[6[8][1][1]]]                                             
  H          -7.885856             9.390858             3.007655            0             0.036492    [1[6[8][1][1]]]                                             
