12

  C           2.263257            -4.148155             5.412082            0             0.099454    [6[8[1]][1][1][1]]                                          
  O           2.954997            -4.750595             6.535683            0            -0.597823    [8[6[1][1][1]][1]]                                          
  H           3.854224            -4.751128             6.203519            0             0.402573    [1[8[6]]]                                                   
  H           2.189910            -3.055356             5.686844            0             0.031932    [1[6[8][1][1]]]                                             
  H           2.686634            -4.323060             4.395248            0             0.031932    [1[6[8][1][1]]]                                             
  H           1.297417            -4.690642             5.387383            0             0.031932    [1[6[8][1][1]]]                                             
  C           2.433431            -7.892769             3.021983            1             0.099454    [6[8[1]][1][1][1]]                                          
  O           3.262621            -8.993162             3.226220            1            -0.597823    [8[6[1][1][1]][1]]                                          
  H           3.720007            -8.989525             4.070696            1             0.402573    [1[8[6]]]                                                   
  H           3.113623            -6.992147             3.041975            1             0.031932    [1[6[8][1][1]]]                                             
  H           2.056161            -7.820688             2.025780            1             0.031932    [1[6[8][1][1]]]                                             
  H           1.661224            -7.817917             3.813661            1             0.031932    [1[6[8][1][1]]]                                             
