12

  C          -7.182048            -8.914908             3.368324            0             0.099454    [6[8[1]][1][1][1]]                                          
  O          -6.336244            -8.077755             4.031345            0            -0.597823    [8[6[1][1][1]][1]]                                          
  H          -5.764151            -7.687476             3.377439            0             0.402573    [1[8[6]]]                                                   
  H          -8.127755            -8.413409             3.198987            0             0.031932    [1[6[8][1][1]]]                                             
  H          -6.764241            -9.326765             2.460549            0             0.031932    [1[6[8][1][1]]]                                             
  H          -7.566545            -9.683697             3.982529            0             0.031932    [1[6[8][1][1]]]                                             
  C          -7.148623            -4.404922             7.610721            1             0.099454    [6[8[1]][1][1][1]]                                          
  O          -7.375907            -4.307510             6.230849            1            -0.597823    [8[6[1][1][1]][1]]                                          
  H          -6.488589            -4.245088             5.849165            1             0.402573    [1[8[6]]]                                                   
  H          -6.923351            -5.494273             7.993890            1             0.031932    [1[6[8][1][1]]]                                             
  H          -6.294813            -3.768090             7.952278            1             0.031932    [1[6[8][1][1]]]                                             
  H          -8.051423            -4.083976             8.151927            1             0.031932    [1[6[8][1][1]]]                                             
