12

  C          -6.453457            -0.292748             3.025583            0             0.099454    [6[8[1]][1][1][1]]                                          
  O          -7.118976             0.113840             4.133951            0            -0.597823    [8[6[1][1][1]][1]]                                          
  H          -6.482829             0.713591             4.577241            0             0.402573    [1[8[6]]]                                                   
  H          -7.026724            -1.111261             2.492437            0             0.031932    [1[6[8][1][1]]]                                             
  H          -6.333896             0.490249             2.235554            0             0.031932    [1[6[8][1][1]]]                                             
  H          -5.489757            -0.618275             3.381762            0             0.031932    [1[6[8][1][1]]]                                             
  C          -5.978860            -3.940260             4.967243            1             0.099454    [6[8[1]][1][1][1]]                                          
  O          -7.132571            -3.093609             4.715674            1            -0.597823    [8[6[1][1][1]][1]]                                          
  H          -7.114231            -2.576531             5.535234            1             0.402573    [1[8[6]]]                                                   
  H          -5.113311            -3.279099             5.162427            1             0.031932    [1[6[8][1][1]]]                                             
  H          -6.074069            -4.632805             5.762767            1             0.031932    [1[6[8][1][1]]]                                             
  H          -5.784888            -4.569163             4.084840            1             0.031932    [1[6[8][1][1]]]                                             
