12

  C          -6.215711             8.702306            -1.753921            0             0.099454    [6[8[1]][1][1][1]]                                          
  O          -6.204522             7.278721            -1.947713            0            -0.597823    [8[6[1][1][1]][1]]                                          
  H          -7.104918             7.064609            -2.073756            0             0.402573    [1[8[6]]]                                                   
  H          -5.527617             9.106006            -0.946702            0             0.031932    [1[6[8][1][1]]]                                             
  H          -5.940116             9.260479            -2.642426            0             0.031932    [1[6[8][1][1]]]                                             
  H          -7.167443             9.114555            -1.494518            0             0.031932    [1[6[8][1][1]]]                                             
  C          -9.322901             11.078570           -2.047191            1             0.099454    [6[8[1]][1][1][1]]                                          
  O          -9.225321             9.984224            -2.949248            1            -0.597823    [8[6[1][1][1]][1]]                                          
  H          -9.121819             9.197441            -2.412125            1             0.402573    [1[8[6]]]                                                   
  H          -9.874648             10.829413           -1.138850            1             0.031932    [1[6[8][1][1]]]                                             
  H          -8.353701             11.301344           -1.708211            1             0.031932    [1[6[8][1][1]]]                                             
  H          -9.668864             11.916965           -2.614837            1             0.031932    [1[6[8][1][1]]]                                             
