12

  C          -0.107336            -6.761295            -6.715591            0             0.099454    [6[8[1]][1][1][1]]                                          
  O          -0.840736            -7.925506            -6.762882            0            -0.597823    [8[6[1][1][1]][1]]                                          
  H          -0.625648            -8.537022            -6.098598            0             0.402573    [1[8[6]]]                                                   
  H           0.918834            -6.900276            -6.443235            0             0.031932    [1[6[8][1][1]]]                                             
  H          -0.136207            -6.196261            -7.628469            0             0.031932    [1[6[8][1][1]]]                                             
  H          -0.460480            -6.062073            -5.931819            0             0.031932    [1[6[8][1][1]]]                                             
  C           1.237218            -10.571253           -4.731252            1             0.099454    [6[8[1]][1][1][1]]                                          
  O           2.090663            -11.620678           -4.301068            1            -0.597823    [8[6[1][1][1]][1]]                                          
  H           1.684505            -12.049990           -3.539937            1             0.402573    [1[8[6]]]                                                   
  H           1.738121            -9.896252            -5.432714            1             0.031932    [1[6[8][1][1]]]                                             
  H           0.298399            -10.936982           -5.241484            1             0.031932    [1[6[8][1][1]]]                                             
  H           0.890046            -9.963813            -3.901905            1             0.031932    [1[6[8][1][1]]]                                             
