12

  C          -3.909642            -7.865513             11.100927           0             0.099454    [6[8[1]][1][1][1]]                                          
  O          -4.235504            -8.325673             12.401175           0            -0.597823    [8[6[1][1][1]][1]]                                          
  H          -3.857427            -7.727334             13.015173           0             0.402573    [1[8[6]]]                                                   
  H          -3.269247            -7.015815             10.976529           0             0.031932    [1[6[8][1][1]]]                                             
  H          -3.522420            -8.676216             10.425879           0             0.031932    [1[6[8][1][1]]]                                             
  H          -4.860598            -7.650929             10.623361           0             0.031932    [1[6[8][1][1]]]                                             
  C          -6.024622            -8.783032             8.677513            1             0.099454    [6[8[1]][1][1][1]]                                          
  O          -5.122256            -9.820005             8.826240            1            -0.597823    [8[6[1][1][1]][1]]                                          
  H          -5.097211            -10.097129            9.725060            1             0.402573    [1[8[6]]]                                                   
  H          -5.825973            -7.938720             9.366395            1             0.031932    [1[6[8][1][1]]]                                             
  H          -5.925312            -8.372173             7.687259            1             0.031932    [1[6[8][1][1]]]                                             
  H          -7.041324            -9.053854             8.939854            1             0.031932    [1[6[8][1][1]]]                                             
