12

  C           1.882657            -5.473259            -4.311445            0             0.099454    [6[8[1]][1][1][1]]                                          
  O           1.200089            -6.616802            -4.829966            0            -0.597823    [8[6[1][1][1]][1]]                                          
  H           0.588911            -6.281126            -5.540718            0             0.402573    [1[8[6]]]                                                   
  H           2.877696            -5.712606            -3.843402            0             0.031932    [1[6[8][1][1]]]                                             
  H           2.170245            -4.752331            -5.142988            0             0.031932    [1[6[8][1][1]]]                                             
  H           1.250145            -4.869591            -3.657311            0             0.031932    [1[6[8][1][1]]]                                             
  C          -0.613204            -3.919236            -6.461523            1             0.099454    [6[8[1]][1][1][1]]                                          
  O          -1.008081            -5.241560            -6.519789            1            -0.597823    [8[6[1][1][1]][1]]                                          
  H          -1.945495            -5.283833            -6.263580            1             0.402573    [1[8[6]]]                                                   
  H          -0.339992            -3.776981            -5.424682            1             0.031932    [1[6[8][1][1]]]                                             
  H           0.346395            -3.820588            -6.973409            1             0.031932    [1[6[8][1][1]]]                                             
  H          -1.283103            -3.203408            -6.861811            1             0.031932    [1[6[8][1][1]]]                                             
