12

  C           10.131559           -0.929883            -3.069840            0             0.099454    [6[8[1]][1][1][1]]                                          
  O           8.749478            -0.835584            -3.413896            0            -0.597823    [8[6[1][1][1]][1]]                                          
  H           8.295501            -1.609561            -3.197512            0             0.402573    [1[8[6]]]                                                   
  H           10.881002           -1.133662            -3.916814            0             0.031932    [1[6[8][1][1]]]                                             
  H           10.518113           -0.027949            -2.527007            0             0.031932    [1[6[8][1][1]]]                                             
  H           10.152257           -1.698416            -2.209900            0             0.031932    [1[6[8][1][1]]]                                             
  C           9.461003            -2.053133            -8.480720            1             0.099454    [6[8[1]][1][1][1]]                                          
  O           10.602396           -2.423743            -9.216608            1            -0.597823    [8[6[1][1][1]][1]]                                          
  H           10.359281           -2.569251            -10.118640           1             0.402573    [1[8[6]]]                                                   
  H           8.540388            -2.501587            -8.746617            1             0.031932    [1[6[8][1][1]]]                                             
  H           9.715682            -2.249565            -7.412942            1             0.031932    [1[6[8][1][1]]]                                             
  H           9.241016            -0.944311            -8.524325            1             0.031932    [1[6[8][1][1]]]                                             
