12

  C           4.903913             0.406796             5.553629            0             0.099454    [6[8[1]][1][1][1]]                                          
  O           4.965341             0.096374             6.927694            0            -0.597823    [8[6[1][1][1]][1]]                                          
  H           4.245651             0.443145             7.449929            0             0.402573    [1[8[6]]]                                                   
  H           3.890953             0.251996             5.036663            0             0.031932    [1[6[8][1][1]]]                                             
  H           5.294555             1.436939             5.352639            0             0.031932    [1[6[8][1][1]]]                                             
  H           5.521654            -0.336337             5.032475            0             0.031932    [1[6[8][1][1]]]                                             
  C           8.183127            -1.590778             8.344374            1             0.099454    [6[8[1]][1][1][1]]                                          
  O           9.134027            -1.824891             9.329483            1            -0.597823    [8[6[1][1][1]][1]]                                          
  H           8.751075            -1.529543             10.182636           1             0.402573    [1[8[6]]]                                                   
  H           7.735898            -0.566056             8.358222            1             0.031932    [1[6[8][1][1]]]                                             
  H           8.580933            -1.749564             7.346575            1             0.031932    [1[6[8][1][1]]]                                             
  H           7.375607            -2.287565             8.354644            1             0.031932    [1[6[8][1][1]]]                                             
