6
Coordinates from ORCA-job 0_geo_opt
  C   3.01101680363933     -1.18171707840192      0.59900729637484
  O   4.39379264070238     -1.12803776278802      0.87402412875157
  H   4.77808072961530     -0.38079772490305      0.41522497018065
  H   2.80510714324836     -1.31995760856492     -0.46862623502097
  H   2.61268270769716     -2.04139963784214      1.13699390595814
  H   2.48357797509747     -0.28574018749996      0.94597493375577
