12

  C          -5.423742            -0.385399            -2.568477            0             0.099454    [6[8[1]][1][1][1]]                                          
  O          -6.072185            -0.124848            -3.822119            0            -0.597823    [8[6[1][1][1]][1]]                                          
  H          -6.889635             0.328356            -3.630966            0             0.402573    [1[8[6]]]                                                   
  H          -5.797947            -1.302258            -2.110480            0             0.031932    [1[6[8][1][1]]]                                             
  H          -4.343157            -0.522965            -2.760718            0             0.031932    [1[6[8][1][1]]]                                             
  H          -5.495436             0.461736            -1.828739            0             0.031932    [1[6[8][1][1]]]                                             
  C          -7.316454             2.519714            -5.714495            1             0.099454    [6[8[1]][1][1][1]]                                          
  O          -8.253568             3.568823            -5.868071            1            -0.597823    [8[6[1][1][1]][1]]                                          
  H          -8.943469             3.628476            -5.171581            1             0.402573    [1[8[6]]]                                                   
  H          -6.661630             2.451363            -6.563210            1             0.031932    [1[6[8][1][1]]]                                             
  H          -6.733230             2.598841            -4.811686            1             0.031932    [1[6[8][1][1]]]                                             
  H          -7.876300             1.578366            -5.571679            1             0.031932    [1[6[8][1][1]]]                                             
