12

  C           2.302825             5.372533            -7.243400            0             0.099454    [6[8[1]][1][1][1]]                                          
  O           3.642213             4.939602            -6.990858            0            -0.597823    [8[6[1][1][1]][1]]                                          
  H           4.230001             5.532004            -7.423894            0             0.402573    [1[8[6]]]                                                   
  H           1.829396             4.900507            -8.072251            0             0.031932    [1[6[8][1][1]]]                                             
  H           1.624187             5.072687            -6.452229            0             0.031932    [1[6[8][1][1]]]                                             
  H           2.318800             6.441176            -7.319937            0             0.031932    [1[6[8][1][1]]]                                             
  C           4.454285             8.442810            -10.203848           1             0.099454    [6[8[1]][1][1][1]]                                          
  O           4.742119             7.468918            -9.203027            1            -0.597823    [8[6[1][1][1]][1]]                                          
  H           5.619634             7.120077            -9.380963            1             0.402573    [1[8[6]]]                                                   
  H           3.502124             8.966420            -10.208412           1             0.031932    [1[6[8][1][1]]]                                             
  H           5.283847             9.216820            -10.153765           1             0.031932    [1[6[8][1][1]]]                                             
  H           4.534951             7.926899            -11.162787           1             0.031932    [1[6[8][1][1]]]                                             
