12

  C          -5.763177             10.794706            6.945043            0             0.099454    [6[8[1]][1][1][1]]                                          
  O          -5.893133             10.454738            8.266319            0            -0.597823    [8[6[1][1][1]][1]]                                          
  H          -6.478443             11.113643            8.738808            0             0.402573    [1[8[6]]]                                                   
  H          -6.778517             10.830846            6.337616            0             0.031932    [1[6[8][1][1]]]                                             
  H          -5.163623             11.696294            6.813743            0             0.031932    [1[6[8][1][1]]]                                             
  H          -5.224453             9.985906             6.412803            0             0.031932    [1[6[8][1][1]]]                                             
  C          -6.288564             7.321391             9.342525            1             0.099454    [6[8[1]][1][1][1]]                                          
  O          -6.551368             6.072985             8.771686            1            -0.597823    [8[6[1][1][1]][1]]                                          
  H          -6.181356             6.100309             7.882743            1             0.402573    [1[8[6]]]                                                   
  H          -5.244810             7.621234             9.418924            1             0.031932    [1[6[8][1][1]]]                                             
  H          -6.769384             8.110163             8.728446            1             0.031932    [1[6[8][1][1]]]                                             
  H          -6.762811             7.352081             10.372824           1             0.031932    [1[6[8][1][1]]]                                             
