12

  C          -6.866469             4.421683             8.464910            0             0.099454    [6[8[1]][1][1][1]]                                          
  O          -6.557333             3.411897             9.441500            0            -0.597823    [8[6[1][1][1]][1]]                                          
  H          -6.710428             3.816482             10.311803           0             0.402573    [1[8[6]]]                                                   
  H          -7.837406             4.893763             8.627305            0             0.031932    [1[6[8][1][1]]]                                             
  H          -6.044514             5.202240             8.393130            0             0.031932    [1[6[8][1][1]]]                                             
  H          -7.024447             3.977563             7.509543            0             0.031932    [1[6[8][1][1]]]                                             
  C          -6.479219            -1.361711             9.804237            1             0.099454    [6[8[1]][1][1][1]]                                          
  O          -7.633055            -0.737605             10.280932           1            -0.597823    [8[6[1][1][1]][1]]                                          
  H          -7.871351            -1.024000             11.174917           1             0.402573    [1[8[6]]]                                                   
  H          -5.711295            -1.646732             10.593939           1             0.031932    [1[6[8][1][1]]]                                             
  H          -6.731494            -2.359005             9.360139            1             0.031932    [1[6[8][1][1]]]                                             
  H          -5.839508            -0.816338             9.086842            1             0.031932    [1[6[8][1][1]]]                                             
