12

  C          -8.806139            -3.804200            -0.537785            0             0.099454    [6[8[1]][1][1][1]]                                          
  O          -9.024071            -2.496550            -1.017201            0            -0.597823    [8[6[1][1][1]][1]]                                          
  H          -9.353899            -2.559543            -1.944128            0             0.402573    [1[8[6]]]                                                   
  H          -8.922862            -3.712289             0.568426            0             0.031932    [1[6[8][1][1]]]                                             
  H          -9.480058            -4.616308            -0.979368            0             0.031932    [1[6[8][1][1]]]                                             
  H          -7.833328            -4.174835            -0.732438            0             0.031932    [1[6[8][1][1]]]                                             
  C          -6.008489            -4.587720            -4.525131            1             0.099454    [6[8[1]][1][1][1]]                                          
  O          -5.657151            -3.490434            -5.323309            1            -0.597823    [8[6[1][1][1]][1]]                                          
  H          -4.759430            -3.178681            -5.161051            1             0.402573    [1[8[6]]]                                                   
  H          -6.094564            -4.278882            -3.454936            1             0.031932    [1[6[8][1][1]]]                                             
  H          -6.943216            -4.900228            -4.978512            1             0.031932    [1[6[8][1][1]]]                                             
  H          -5.366793            -5.404057            -4.591604            1             0.031932    [1[6[8][1][1]]]                                             
