12

  C          -5.673843             9.678529             0.887699            0             0.099454    [6[8[1]][1][1][1]]                                          
  O          -5.079798             8.484025             1.211510            0            -0.597823    [8[6[1][1][1]][1]]                                          
  H          -4.231268             8.659638             1.607767            0             0.402573    [1[8[6]]]                                                   
  H          -5.775124             10.359576            1.647475            0             0.031932    [1[6[8][1][1]]]                                             
  H          -5.041630             10.146954            0.099919            0             0.031932    [1[6[8][1][1]]]                                             
  H          -6.710823             9.493351             0.457744            0             0.031932    [1[6[8][1][1]]]                                             
  C          -8.141431             10.120982            5.609422            1             0.099454    [6[8[1]][1][1][1]]                                          
  O          -6.883457             9.926488             5.013537            1            -0.597823    [8[6[1][1][1]][1]]                                          
  H          -6.746002             9.087086             4.583543            1             0.402573    [1[8[6]]]                                                   
  H          -8.833033             10.492227            4.872045            1             0.031932    [1[6[8][1][1]]]                                             
  H          -8.543352             9.177834             6.082713            1             0.031932    [1[6[8][1][1]]]                                             
  H          -8.084201             10.899987            6.355994            1             0.031932    [1[6[8][1][1]]]                                             
