12

  C           4.463888             10.329483            8.452455            0             0.099454    [6[8[1]][1][1][1]]                                          
  O           5.053410             11.626280            8.445353            0            -0.597823    [8[6[1][1][1]][1]]                                          
  H           5.107064             11.999492            9.351809            0             0.402573    [1[8[6]]]                                                   
  H           3.465351             10.341592            8.955897            0             0.031932    [1[6[8][1][1]]]                                             
  H           4.478914             10.000706            7.463618            0             0.031932    [1[6[8][1][1]]]                                             
  H           5.187701             9.732460             8.978266            0             0.031932    [1[6[8][1][1]]]                                             
  C           4.388726             9.552347             4.107769            1             0.099454    [6[8[1]][1][1][1]]                                          
  O           3.658373             10.791199            3.972399            1            -0.597823    [8[6[1][1][1]][1]]                                          
  H           4.131844             11.185046            3.315847            1             0.402573    [1[8[6]]]                                                   
  H           5.271606             9.540053             4.751610            1             0.031932    [1[6[8][1][1]]]                                             
  H           3.759184             8.694023             4.459924            1             0.031932    [1[6[8][1][1]]]                                             
  H           4.778763             9.165243             3.156276            1             0.031932    [1[6[8][1][1]]]                                             
