12

  C           11.210682            9.246803             6.188863            0             0.099454    [6[8[1]][1][1][1]]                                          
  O           11.549430            8.223964             5.224175            0            -0.597823    [8[6[1][1][1]][1]]                                          
  H           11.164311            8.328825             4.327987            0             0.402573    [1[8[6]]]                                                   
  H           10.399351            9.964930             5.876393            0             0.031932    [1[6[8][1][1]]]                                             
  H           11.010089            8.837820             7.195674            0             0.031932    [1[6[8][1][1]]]                                             
  H           12.169177            9.877960             6.296828            0             0.031932    [1[6[8][1][1]]]                                             
  C           9.235937             6.856462             8.979347            1             0.099454    [6[8[1]][1][1][1]]                                          
  O           8.169158             7.760374             9.189008            1            -0.597823    [8[6[1][1][1]][1]]                                          
  H           8.528831             8.563876             9.578606            1             0.402573    [1[8[6]]]                                                   
  H           9.455103             6.712166             7.905460            1             0.031932    [1[6[8][1][1]]]                                             
  H           10.129346            7.193649             9.507493            1             0.031932    [1[6[8][1][1]]]                                             
  H           9.047550             5.817017             9.323970            1             0.031932    [1[6[8][1][1]]]                                             
