6
Coordinates from ORCA-job scan-forward_geo_opt
  C   2.98678900654533     -1.07264142251723      0.59745322219890
  O   4.26809650260354     -0.51540432839308      0.81171828516804
  H   4.92961951282119     -1.11037966486126      0.46130201385445
  H   2.95649917316820     -1.71879540681882     -0.28512255880139
  H   2.65832756175531     -1.66062571317690      1.46204056290436
  H   2.28166824310641     -0.25384346423271      0.45010847467564
