6
Coordinates from ORCA-job scan-forward_geo_opt
  C   2.99125385667868     -1.07313769628673      0.54061302099477
  O   4.27472127845742     -0.48416533281967      0.54158977823388
  H   4.91780841810084     -1.14386427970385      0.80101967606383
  H   2.81858532180206     -1.67853039696863     -0.35684831305957
  H   2.81466922309720     -1.69089175072419      1.42728214555512
  H   2.26396190186379     -0.26110054349692      0.54384369221198
