6
Coordinates from ORCA-job scan-forward_geo_opt
  C   3.01503213005181     -1.19132386487900      0.57709566025158
  O   4.41353247624353     -1.17722555670217      0.77444394475165
  H   4.75120611428004     -0.31401725533460      0.53641151697820
  H   2.75216031868349     -1.36557437940216     -0.47273645045395
  H   2.61308034376489     -2.01628891508486      1.16575483042940
  H   2.53598861697624     -0.26726002859721      0.91653049804312
