6
Coordinates from ORCA-job scan-forward_geo_opt
  C   3.00773641490295     -1.13625218372099      0.49760865883191
  O   4.37969844726528     -0.88686606364572      0.27673361841079
  H   4.79151068415925     -0.66642046481211      1.11235547350911
  H   2.61042338923977     -1.57943410918550     -0.41516368814949
  H   2.84199575692596     -1.84567229654382      1.31599632891107
  H   2.44963530750679     -0.21704488209186      0.70996960848660
