6
Coordinates from ORCA-job scan-forward_geo_opt
  C   2.99007265792999     -1.07066824664109      0.55243738657486
  O   4.26817250954267     -0.47298003983623      0.59636441983949
  H   4.92401272806554     -1.15732159488603      0.73141056329952
  H   2.85183161814877     -1.68531731365482     -0.34468511474217
  H   2.78658067098292     -1.68351524787657      1.43756489346206
  H   2.26032981533010     -0.26188755710526      0.52440785156623
