6
Coordinates from ORCA-job scan-forward_geo_opt
  C   2.99245030661852     -1.10792260478031      0.62857684261178
  O   4.30483555175636     -0.72906967141480      0.99482332827398
  H   4.88863364488093     -0.86245352713609      0.24979357043520
  H   2.97956610615215     -1.79069947048944     -0.22591368798272
  H   2.52753263888030     -1.61050336425091      1.47819527935485
  H   2.38798175171172     -0.23104136192845      0.37202466730689
