6
Coordinates from ORCA-job scan-forward_geo_opt
  C   3.01053734134737     -1.14926791886631      0.50141552693151
  O   4.39024249625321     -0.93988767685259      0.28927431094878
  H   4.77743654771825     -0.59902774927751      1.09593223582700
  H   2.60415628625606     -1.55991255255670     -0.42232049263946
  H   2.81917906419405     -1.86661091510914      1.30765850238747
  H   2.47944826423105     -0.21698318733774      0.72553991654470
