6
Coordinates from ORCA-job scan-forward_geo_opt
  C   2.99934868515100     -1.10292313552487      0.49504677541208
  O   4.34586452020384     -0.71976039140540      0.29378968221448
  H   4.83876161865107     -0.87134155827690      1.09849482069537
  H   2.65117940518686     -1.62787173228056     -0.39644913593147
  H   2.88435722838218     -1.78114766769563      1.34563279218247
  H   2.36148854242506     -0.22864551481663      0.66098506542708
