6
Coordinates from ORCA-job scan-forward_geo_opt
  C   2.98889979551043     -1.06909264472875      0.56434677685655
  O   4.26434693868876     -0.47067695495487      0.65165415185224
  H   4.92814523337794     -1.16064395600052      0.66101794856306
  H   2.88347239522312     -1.69252835725877     -0.33082809687678
  H   2.75596675889684     -1.67742203459468      1.44595795564424
  H   2.26016887830290     -0.26132605246240      0.50535126396068
