6
Coordinates from ORCA-job scan-forward_geo_opt
  C   3.01721190034661     -1.19841345841278      0.55640977972487
  O   4.42790001535994     -1.19260055937604      0.65710456444177
  H   4.73727473510354     -0.28838871058877      0.67525539121933
  H   2.69704704222908     -1.40687893535089     -0.46994676249602
  H   2.63034768581306     -1.99169028191107      1.19897074906370
  H   2.57121862114777     -0.25371805436045      0.87970627804634
