6
Coordinates from ORCA-job scan-forward_geo_opt
  C   3.00479714938002     -1.12379936857177      0.49509677639049
  O   4.36887402104792     -0.83182161651740      0.27315934127122
  H   4.80661310918082     -0.73532219697878      1.11856233753542
  H   2.62043526601936     -1.59754511522593     -0.40831405991779
  H   2.86102900228438     -1.82412743003369      1.32471149797318
  H   2.41925145208750     -0.21907427267244      0.69428410674748
