6
Coordinates from ORCA-job scan-forward_geo_opt
  C   3.01753384949590     -1.19211655022718      0.52439583482323
  O   4.42608048170823     -1.11679923328962      0.42406700389892
  H   4.73736724950875     -0.37374682235173      0.93857671287603
  H   2.61872168594782     -1.47946361125065     -0.44995617590290
  H   2.71159376577970     -1.93830143611339      1.26514012257379
  H   2.56970296755960     -0.23126234676742      0.79527650173092
