12

  C           8.283693             3.564489            -7.961779            0             0.099454    [6[8[1]][1][1][1]]                                          
  O           9.208929             4.425566            -8.624489            0            -0.597823    [8[6[1][1][1]][1]]                                          
  H           9.989970             4.551249            -8.070807            0             0.402573    [1[8[6]]]                                                   
  H           8.733532             2.900308            -7.241755            0             0.031932    [1[6[8][1][1]]]                                             
  H           7.574161             4.085482            -7.293596            0             0.031932    [1[6[8][1][1]]]                                             
  H           7.764251             3.051280            -8.713159            0             0.031932    [1[6[8][1][1]]]                                             
  C           9.588967             6.444306            -11.364758           1             0.099454    [6[8[1]][1][1][1]]                                          
  O           8.512771             6.722435            -10.501509           1            -0.597823    [8[6[1][1][1]][1]]                                          
  H           8.719048             6.097591            -9.827282            1             0.402573    [1[8[6]]]                                                   
  H           10.533110            6.923681            -11.005367           1             0.031932    [1[6[8][1][1]]]                                             
  H           9.706460             5.338926            -11.580068           1             0.031932    [1[6[8][1][1]]]                                             
  H           9.328945             6.856368            -12.404818           1             0.031932    [1[6[8][1][1]]]                                             
