12

  C           10.142335            1.302247             1.921414            0             0.099454    [6[8[1]][1][1][1]]                                          
  O           9.078113             1.027545             1.000667            0            -0.597823    [8[6[1][1][1]][1]]                                          
  H           9.264941             1.643469             0.317087            0             0.402573    [1[8[6]]]                                                   
  H           10.236299            0.491485             2.608424            0             0.031932    [1[6[8][1][1]]]                                             
  H           11.089045            1.398064             1.413199            0             0.031932    [1[6[8][1][1]]]                                             
  H           9.884949             2.299644             2.479286            0             0.031932    [1[6[8][1][1]]]                                             
  C           6.117011            -0.537824             2.319645            1             0.099454    [6[8[1]][1][1][1]]                                          
  O           6.705269            -0.410618             1.052811            1            -0.597823    [8[6[1][1][1]][1]]                                          
  H           7.634214            -0.345952             1.299747            1             0.402573    [1[8[6]]]                                                   
  H           6.282751             0.344865             2.953731            1             0.031932    [1[6[8][1][1]]]                                             
  H           5.042268            -0.805252             2.201874            1             0.031932    [1[6[8][1][1]]]                                             
  H           6.552636            -1.415495             2.782392            1             0.031932    [1[6[8][1][1]]]                                             
