12

  C           9.733848             5.729095            -8.103224            0             0.099454    [6[8[1]][1][1][1]]                                          
  O           10.155146            5.046425            -9.199890            0            -0.597823    [8[6[1][1][1]][1]]                                          
  H           10.460093            4.157411            -8.977608            0             0.402573    [1[8[6]]]                                                   
  H           10.485140            6.467042            -7.724578            0             0.031932    [1[6[8][1][1]]]                                             
  H           8.799637             6.380273            -8.238862            0             0.031932    [1[6[8][1][1]]]                                             
  H           9.482330             5.100676            -7.208801            0             0.031932    [1[6[8][1][1]]]                                             
  C           7.100996             4.184445            -10.717289           1             0.099454    [6[8[1]][1][1][1]]                                          
  O           8.128690             5.123075            -11.097442           1            -0.597823    [8[6[1][1][1]][1]]                                          
  H           8.982406             4.783238            -10.782652           1             0.402573    [1[8[6]]]                                                   
  H           6.067444             4.537163            -10.843540           1             0.031932    [1[6[8][1][1]]]                                             
  H           7.319320             3.210798            -11.247380           1             0.031932    [1[6[8][1][1]]]                                             
  H           7.083041             3.865088            -9.682737            1             0.031932    [1[6[8][1][1]]]                                             
