12

  C          -8.336969            -4.600054             6.961619            0             0.099454    [6[8[1]][1][1][1]]                                          
  O          -7.406997            -4.718792             5.976221            0            -0.597823    [8[6[1][1][1]][1]]                                          
  H          -6.557219            -5.068828             6.345814            0             0.402573    [1[8[6]]]                                                   
  H          -9.026821            -3.757067             6.800029            0             0.031932    [1[6[8][1][1]]]                                             
  H          -9.068774            -5.485411             6.969378            0             0.031932    [1[6[8][1][1]]]                                             
  H          -7.848887            -4.496328             7.950912            0             0.031932    [1[6[8][1][1]]]                                             
  C          -6.546840             0.074704             9.038280            1             0.099454    [6[8[1]][1][1][1]]                                          
  O          -6.336000             1.429750             8.808845            1            -0.597823    [8[6[1][1][1]][1]]                                          
  H          -5.428613             1.515341             8.559811            1             0.402573    [1[8[6]]]                                                   
  H          -7.109638            -0.391232             8.240486            1             0.031932    [1[6[8][1][1]]]                                             
  H          -5.589320            -0.496312             9.039589            1             0.031932    [1[6[8][1][1]]]                                             
  H          -7.081118            -0.070553             9.995042            1             0.031932    [1[6[8][1][1]]]                                             
