12

  C          -2.747217            -1.439285             7.215734            0             0.099454    [6[8[1]][1][1][1]]                                          
  O          -3.661565            -2.257749             7.941439            0            -0.597823    [8[6[1][1][1]][1]]                                          
  H          -4.087411            -2.914877             7.304557            0             0.402573    [1[8[6]]]                                                   
  H          -1.744539            -1.863552             7.165893            0             0.031932    [1[6[8][1][1]]]                                             
  H          -3.187766            -1.140830             6.244377            0             0.031932    [1[6[8][1][1]]]                                             
  H          -2.642980            -0.476722             7.720025            0             0.031932    [1[6[8][1][1]]]                                             
  C           1.711450            -2.320812             7.646247            1             0.099454    [6[8[1]][1][1][1]]                                          
  O           2.272455            -2.607682             6.372565            1            -0.597823    [8[6[1][1][1]][1]]                                          
  H           2.541367            -3.494958             6.384661            1             0.402573    [1[8[6]]]                                                   
  H           1.660441            -3.176239             8.294267            1             0.031932    [1[6[8][1][1]]]                                             
  H           2.251824            -1.474142             8.110296            1             0.031932    [1[6[8][1][1]]]                                             
  H           0.626260            -1.930606             7.640705            1             0.031932    [1[6[8][1][1]]]                                             
