12

  C           3.270100             3.122538            -7.130253            0             0.099454    [6[8[1]][1][1][1]]                                          
  O           3.381538             2.572077            -5.852959            0            -0.597823    [8[6[1][1][1]][1]]                                          
  H           4.009754             3.136969            -5.411769            0             0.402573    [1[8[6]]]                                                   
  H           3.960779             3.980982            -7.247778            0             0.031932    [1[6[8][1][1]]]                                             
  H           3.434063             2.453098            -7.943087            0             0.031932    [1[6[8][1][1]]]                                             
  H           2.231694             3.476196            -7.282018            0             0.031932    [1[6[8][1][1]]]                                             
  C           0.867542             3.912928            -3.182663            1             0.099454    [6[8[1]][1][1][1]]                                          
  O           2.242398             3.624090            -3.323896            1            -0.597823    [8[6[1][1][1]][1]]                                          
  H           2.326476             3.199194            -4.209567            1             0.402573    [1[8[6]]]                                                   
  H           0.454290             2.951350            -2.958725            1             0.031932    [1[6[8][1][1]]]                                             
  H           0.678797             4.536893            -2.275241            1             0.031932    [1[6[8][1][1]]]                                             
  H           0.363630             4.368854            -4.072581            1             0.031932    [1[6[8][1][1]]]                                             
