12

  C           5.317093            -1.389465             9.829214            0             0.099454    [6[8[1]][1][1][1]]                                          
  O           4.191214            -1.778297             9.136215            0            -0.597823    [8[6[1][1][1]][1]]                                          
  H           3.445085            -1.583899             9.711773            0             0.402573    [1[8[6]]]                                                   
  H           5.210921            -0.435185             10.318451           0             0.031932    [1[6[8][1][1]]]                                             
  H           5.554928            -2.009631             10.720505           0             0.031932    [1[6[8][1][1]]]                                             
  H           6.232359            -1.237325             9.223944            0             0.031932    [1[6[8][1][1]]]                                             
  C           6.703492             0.396091             5.305588            1             0.099454    [6[8[1]][1][1][1]]                                          
  O           5.442587             0.726832             5.796296            1            -0.597823    [8[6[1][1][1]][1]]                                          
  H           4.738979             0.132312             5.362893            1             0.402573    [1[8[6]]]                                                   
  H           6.654158             0.514180             4.212192            1             0.031932    [1[6[8][1][1]]]                                             
  H           7.419029             1.101467             5.651365            1             0.031932    [1[6[8][1][1]]]                                             
  H           6.987095            -0.656286             5.527411            1             0.031932    [1[6[8][1][1]]]                                             
