12

  C           7.022081            -8.326697             9.853911            0             0.099454    [6[8[1]][1][1][1]]                                          
  O           7.322670            -8.141552             11.271273           0            -0.597823    [8[6[1][1][1]][1]]                                          
  H           6.715127            -8.811474             11.650271           0             0.402573    [1[8[6]]]                                                   
  H           7.204798            -7.429468             9.312744            0             0.031932    [1[6[8][1][1]]]                                             
  H           7.707695            -9.087207             9.380179            0             0.031932    [1[6[8][1][1]]]                                             
  H           5.996552            -8.662078             9.599881            0             0.031932    [1[6[8][1][1]]]                                             
  C           3.521563            -8.395177             6.505984            1             0.099454    [6[8[1]][1][1][1]]                                          
  O           2.803893            -7.956454             5.383226            1            -0.597823    [8[6[1][1][1]][1]]                                          
  H           2.484946            -7.127804             5.680847            1             0.402573    [1[8[6]]]                                                   
  H           2.867925            -8.568424             7.366260            1             0.031932    [1[6[8][1][1]]]                                             
  H           3.884699            -9.352271             6.189371            1             0.031932    [1[6[8][1][1]]]                                             
  H           4.433381            -7.748269             6.774794            1             0.031932    [1[6[8][1][1]]]                                             
