12

  C           3.842016             6.695679             2.250202            0             0.099454    [6[8[1]][1][1][1]]                                          
  O           2.873278             7.246164             1.343030            0            -0.597823    [8[6[1][1][1]][1]]                                          
  H           3.031708             6.919436             0.425400            0             0.402573    [1[8[6]]]                                                   
  H           3.817862             5.565453             2.173094            0             0.031932    [1[6[8][1][1]]]                                             
  H           4.822762             6.953849             1.878522            0             0.031932    [1[6[8][1][1]]]                                             
  H           3.663193             7.138407             3.241986            0             0.031932    [1[6[8][1][1]]]                                             
  C           0.717877             3.743836             0.867789            1             0.099454    [6[8[1]][1][1][1]]                                          
  O           0.164363             4.019188            -0.425646            1            -0.597823    [8[6[1][1][1]][1]]                                          
  H          -0.707830             4.373202            -0.283996            1             0.402573    [1[8[6]]]                                                   
  H           0.209102             2.871142             1.298025            1             0.031932    [1[6[8][1][1]]]                                             
  H           1.781979             3.422874             0.875334            1             0.031932    [1[6[8][1][1]]]                                             
  H           0.556332             4.543657             1.505800            1             0.031932    [1[6[8][1][1]]]                                             
