12

  C          -10.607702           -6.279182             4.956583            0             0.099454    [6[8[1]][1][1][1]]                                          
  O          -9.962878            -5.256019             4.217466            0            -0.597823    [8[6[1][1][1]][1]]                                          
  H          -9.160693            -5.027956             4.776524            0             0.402573    [1[8[6]]]                                                   
  H          -10.191750           -7.315485             4.792045            0             0.031932    [1[6[8][1][1]]]                                             
  H          -10.521289           -6.060253             6.014975            0             0.031932    [1[6[8][1][1]]]                                             
  H          -11.670653           -6.322046             4.700460            0             0.031932    [1[6[8][1][1]]]                                             
  C          -8.587811            -5.711729             1.015743            1             0.099454    [6[8[1]][1][1][1]]                                          
  O          -8.651256            -4.413905             1.663705            1            -0.597823    [8[6[1][1][1]][1]]                                          
  H          -9.360045            -4.427384             2.373298            1             0.402573    [1[8[6]]]                                                   
  H          -8.050251            -6.443600             1.630989            1             0.031932    [1[6[8][1][1]]]                                             
  H          -9.606779            -6.084682             0.823730            1             0.031932    [1[6[8][1][1]]]                                             
  H          -8.036534            -5.691645             0.135173            1             0.031932    [1[6[8][1][1]]]                                             
