12

  C           7.607285            -5.451688            -4.193756            0             0.099454    [6[8[1]][1][1][1]]                                          
  O           8.840122            -5.024464            -4.757572            0            -0.597823    [8[6[1][1][1]][1]]                                          
  H           9.236338            -4.323014            -4.290223            0             0.402573    [1[8[6]]]                                                   
  H           7.692302            -5.746558            -3.175119            0             0.031932    [1[6[8][1][1]]]                                             
  H           6.876736            -4.628547            -4.298297            0             0.031932    [1[6[8][1][1]]]                                             
  H           7.263589            -6.399799            -4.644602            0             0.031932    [1[6[8][1][1]]]                                             
  C           11.213368           -3.650369            -2.198534            1             0.099454    [6[8[1]][1][1][1]]                                          
  O           10.073451           -3.009435            -2.593356            1            -0.597823    [8[6[1][1][1]][1]]                                          
  H           10.218555           -2.154800            -2.998738            1             0.402573    [1[8[6]]]                                                   
  H           11.842974           -3.847001            -3.042106            1             0.031932    [1[6[8][1][1]]]                                             
  H           11.816989           -3.031146            -1.530692            1             0.031932    [1[6[8][1][1]]]                                             
  H           11.057365           -4.625770            -1.796941            1             0.031932    [1[6[8][1][1]]]                                             
