12

  C           4.287323             3.811473            -10.095497           0             0.099454    [6[8[1]][1][1][1]]                                          
  O           5.437001             3.561698            -10.899745           0            -0.597823    [8[6[1][1][1]][1]]                                          
  H           5.610883             2.637790            -10.816381           0             0.402573    [1[8[6]]]                                                   
  H           3.601199             4.500166            -10.683801           0             0.031932    [1[6[8][1][1]]]                                             
  H           3.740410             2.909689            -9.881101            0             0.031932    [1[6[8][1][1]]]                                             
  H           4.471084             4.301608            -9.117160            0             0.031932    [1[6[8][1][1]]]                                             
  C           7.325331             2.009467            -5.670389            1             0.099454    [6[8[1]][1][1][1]]                                          
  O           8.123914             3.177363            -5.456329            1            -0.597823    [8[6[1][1][1]][1]]                                          
  H           8.504712             3.416685            -6.307594            1             0.402573    [1[8[6]]]                                                   
  H           7.783440             1.398973            -6.538827            1             0.031932    [1[6[8][1][1]]]                                             
  H           7.272963             1.471149            -4.685019            1             0.031932    [1[6[8][1][1]]]                                             
  H           6.357954             2.178051            -6.023412            1             0.031932    [1[6[8][1][1]]]                                             
