12

  C           8.855435             2.500085            -1.398292            0             0.099454    [6[8[1]][1][1][1]]                                          
  O           8.460156             1.355056            -0.672985            0            -0.597823    [8[6[1][1][1]][1]]                                          
  H           9.255421             1.118995            -0.121987            0             0.402573    [1[8[6]]]                                                   
  H           9.214119             3.364614            -0.741264            0             0.031932    [1[6[8][1][1]]]                                             
  H           9.646805             2.202095            -2.062144            0             0.031932    [1[6[8][1][1]]]                                             
  H           8.024161             2.826217            -2.019382            0             0.031932    [1[6[8][1][1]]]                                             
  C           9.144528            -1.350584             2.123332            1             0.099454    [6[8[1]][1][1][1]]                                          
  O           9.525561            -0.292398             2.990248            1            -0.597823    [8[6[1][1][1]][1]]                                          
  H           9.668110            -0.614364             3.858280            1             0.402573    [1[8[6]]]                                                   
  H           8.167091            -1.765255             2.385883            1             0.031932    [1[6[8][1][1]]]                                             
  H           9.057492            -1.009777             1.120715            1             0.031932    [1[6[8][1][1]]]                                             
  H           9.840850            -2.204010             2.287589            1             0.031932    [1[6[8][1][1]]]                                             
