12

  C          -6.809828            -7.466043             3.576054            0             0.099454    [6[8[1]][1][1][1]]                                          
  O          -7.899568            -7.122431             2.761647            0            -0.597823    [8[6[1][1][1]][1]]                                          
  H          -8.485116            -6.571884             3.300043            0             0.402573    [1[8[6]]]                                                   
  H          -6.140757            -8.235801             3.211368            0             0.031932    [1[6[8][1][1]]]                                             
  H          -6.195975            -6.624707             3.804071            0             0.031932    [1[6[8][1][1]]]                                             
  H          -7.153628            -7.872314             4.553636            0             0.031932    [1[6[8][1][1]]]                                             
  C          -9.419754            -8.999298             0.521356            1             0.099454    [6[8[1]][1][1][1]]                                          
  O          -9.622307            -9.161128             1.920195            1            -0.597823    [8[6[1][1][1]][1]]                                          
  H          -8.922278            -8.609451             2.246270            1             0.402573    [1[8[6]]]                                                   
  H          -9.949133            -8.085550             0.170717            1             0.031932    [1[6[8][1][1]]]                                             
  H          -8.383027            -8.907763             0.132142            1             0.031932    [1[6[8][1][1]]]                                             
  H          -9.894533            -9.824222             0.008250            1             0.031932    [1[6[8][1][1]]]                                             
