12

  C           0.388477             4.100360             7.695616            0             0.099454    [6[8[1]][1][1][1]]                                          
  O          -0.947411             4.692757             7.944071            0            -0.597823    [8[6[1][1][1]][1]]                                          
  H          -1.091817             5.388982             7.292805            0             0.402573    [1[8[6]]]                                                   
  H           1.164795             4.910124             7.802517            0             0.031932    [1[6[8][1][1]]]                                             
  H           0.723529             3.246645             8.329768            0             0.031932    [1[6[8][1][1]]]                                             
  H           0.383064             3.620852             6.668489            0             0.031932    [1[6[8][1][1]]]                                             
  C          -0.071571             7.586414             7.033307            1             0.099454    [6[8[1]][1][1][1]]                                          
  O          -0.467724             8.887866             7.324802            1            -0.597823    [8[6[1][1][1]][1]]                                          
  H          -0.952794             9.275184             6.553216            1             0.402573    [1[8[6]]]                                                   
  H           0.866285             7.675874             6.438396            1             0.031932    [1[6[8][1][1]]]                                             
  H          -0.027817             6.980002             7.944635            1             0.031932    [1[6[8][1][1]]]                                             
  H          -0.725721             7.050403             6.424066            1             0.031932    [1[6[8][1][1]]]                                             
