12

  C           7.094991            -5.874388             4.295036            0             0.099454    [6[8[1]][1][1][1]]                                          
  O           6.607568            -5.115187             5.413430            0            -0.597823    [8[6[1][1][1]][1]]                                          
  H           6.014298            -4.411971             5.145993            0             0.402573    [1[8[6]]]                                                   
  H           6.600203            -5.667700             3.315345            0             0.031932    [1[6[8][1][1]]]                                             
  H           8.165961            -5.827261             4.147364            0             0.031932    [1[6[8][1][1]]]                                             
  H           6.868536            -6.907309             4.499651            0             0.031932    [1[6[8][1][1]]]                                             
  C           4.711376            -9.401158             3.653627            1             0.099454    [6[8[1]][1][1][1]]                                          
  O           4.517502            -8.654134             4.790164            1            -0.597823    [8[6[1][1][1]][1]]                                          
  H           4.547553            -9.274433             5.562109            1             0.402573    [1[8[6]]]                                                   
  H           4.063894            -10.339325            3.744388            1             0.031932    [1[6[8][1][1]]]                                             
  H           4.302707            -8.863721             2.769714            1             0.031932    [1[6[8][1][1]]]                                             
  H           5.778902            -9.594835             3.437364            1             0.031932    [1[6[8][1][1]]]                                             
