12

  C          -7.533343             9.986893             10.024184           0             0.099454    [6[8[1]][1][1][1]]                                          
  O          -8.434405             9.247854             9.253754            0            -0.597823    [8[6[1][1][1]][1]]                                          
  H          -9.360903             9.576773             9.322728            0             0.402573    [1[8[6]]]                                                   
  H          -7.287358             10.958760            9.543611            0             0.031932    [1[6[8][1][1]]]                                             
  H          -7.914960             10.142009            11.017530           0             0.031932    [1[6[8][1][1]]]                                             
  H          -6.603391             9.494522             10.069739           0             0.031932    [1[6[8][1][1]]]                                             
  C          -8.215719             6.116822             6.804195            1             0.099454    [6[8[1]][1][1][1]]                                          
  O          -9.389042             5.452235             7.337139            1            -0.597823    [8[6[1][1][1]][1]]                                          
  H          -9.485368             5.804453             8.222814            1             0.402573    [1[8[6]]]                                                   
  H          -7.452653             6.228875             7.592350            1             0.031932    [1[6[8][1][1]]]                                             
  H          -7.798064             5.494275             6.044174            1             0.031932    [1[6[8][1][1]]]                                             
  H          -8.502615             7.088903             6.458666            1             0.031932    [1[6[8][1][1]]]                                             
