12

  C          -0.279772             8.880130            -5.984317            0             0.099454    [6[8[1]][1][1][1]]                                          
  O           0.783245             8.630714            -6.886738            0            -0.597823    [8[6[1][1][1]][1]]                                          
  H           0.274807             8.473379            -7.649880            0             0.402573    [1[8[6]]]                                                   
  H          -0.903684             9.718744            -6.263217            0             0.031932    [1[6[8][1][1]]]                                             
  H          -0.970593             8.024726            -5.917269            0             0.031932    [1[6[8][1][1]]]                                             
  H           0.085905             9.093486            -4.943612            0             0.031932    [1[6[8][1][1]]]                                             
  C          -0.411546             4.687511            -8.903536            1             0.099454    [6[8[1]][1][1][1]]                                          
  O          -0.678299             5.400739            -10.086564           1            -0.597823    [8[6[1][1][1]][1]]                                          
  H          -0.546198             4.894099            -10.882617           1             0.402573    [1[8[6]]]                                                   
  H          -0.136972             5.398320            -8.128632            1             0.031932    [1[6[8][1][1]]]                                             
  H          -1.162960             4.005270            -8.509791            1             0.031932    [1[6[8][1][1]]]                                             
  H           0.489109             4.041766            -8.921315            1             0.031932    [1[6[8][1][1]]]                                             
