12

  C           2.216168            -10.583670            6.792271            0             0.099454    [6[8[1]][1][1][1]]                                          
  O           1.676542            -10.073466            5.612727            0            -0.597823    [8[6[1][1][1]][1]]                                          
  H           2.289929            -10.296612            4.873086            0             0.402573    [1[8[6]]]                                                   
  H           1.920652            -11.635590            6.979439            0             0.031932    [1[6[8][1][1]]]                                             
  H           3.230282            -10.410300            6.926087            0             0.031932    [1[6[8][1][1]]]                                             
  H           1.813010            -10.092693            7.607417            0             0.031932    [1[6[8][1][1]]]                                             
  C           4.375305            -6.590619             8.570160            1             0.099454    [6[8[1]][1][1][1]]                                          
  O           3.198486            -6.577218             7.791134            1            -0.597823    [8[6[1][1][1]][1]]                                          
  H           3.032970            -7.405576             7.363455            1             0.402573    [1[8[6]]]                                                   
  H           5.218908            -6.092983             8.186280            1             0.031932    [1[6[8][1][1]]]                                             
  H           4.268135            -6.210172             9.560701            1             0.031932    [1[6[8][1][1]]]                                             
  H           4.850639            -7.577461             8.626271            1             0.031932    [1[6[8][1][1]]]                                             
