12

  C           11.238228            10.317055            4.231244            0             0.099454    [6[8[1]][1][1][1]]                                          
  O           11.004741            9.756456             5.502526            0            -0.597823    [8[6[1][1][1]][1]]                                          
  H           11.803424            9.691634             6.024288            0             0.402573    [1[8[6]]]                                                   
  H           12.221745            10.023129            3.904021            0             0.031932    [1[6[8][1][1]]]                                             
  H           10.449135            10.039698            3.569231            0             0.031932    [1[6[8][1][1]]]                                             
  H           11.320839            11.432934            4.327745            0             0.031932    [1[6[8][1][1]]]                                             
  C           10.341195            7.879834             8.315473            1             0.099454    [6[8[1]][1][1][1]]                                          
  O           9.184051             7.589000             7.623319            1            -0.597823    [8[6[1][1][1]][1]]                                          
  H           9.159229             7.996545             6.769346            1             0.402573    [1[8[6]]]                                                   
  H           11.140455            7.430580             7.707930            1             0.031932    [1[6[8][1][1]]]                                             
  H           10.562793            8.937215             8.385997            1             0.031932    [1[6[8][1][1]]]                                             
  H           10.308050            7.325955             9.300328            1             0.031932    [1[6[8][1][1]]]                                             
