12

  C           4.271779             4.712240             5.343485            0             0.099454    [6[8[1]][1][1][1]]                                          
  O           4.861457             5.690898             4.454410            0            -0.597823    [8[6[1][1][1]][1]]                                          
  H           4.587557             5.662843             3.570705            0             0.402573    [1[8[6]]]                                                   
  H           4.713760             3.664029             5.121006            0             0.031932    [1[6[8][1][1]]]                                             
  H           4.705710             4.923602             6.335144            0             0.031932    [1[6[8][1][1]]]                                             
  H           3.190266             4.808637             5.377588            0             0.031932    [1[6[8][1][1]]]                                             
  C           7.856281             6.990472             2.461391            1             0.099454    [6[8[1]][1][1][1]]                                          
  O           7.999837             7.573358             1.195961            1            -0.597823    [8[6[1][1][1]][1]]                                          
  H           8.965035             7.663970             0.982130            1             0.402573    [1[8[6]]]                                                   
  H           8.441369             7.390414             3.360844            1             0.031932    [1[6[8][1][1]]]                                             
  H           6.849756             6.852662             2.832672            1             0.031932    [1[6[8][1][1]]]                                             
  H           8.225145             5.967884             2.572257            1             0.031932    [1[6[8][1][1]]]                                             
