12

  C          -5.908820             9.914225             2.928473            0             0.099454    [6[8[1]][1][1][1]]                                          
  O          -5.230822             9.218383             3.952010            0            -0.597823    [8[6[1][1][1]][1]]                                          
  H          -5.789429             8.456262             4.113283            0             0.402573    [1[8[6]]]                                                   
  H          -5.594980             9.513840             1.948550            0             0.031932    [1[6[8][1][1]]]                                             
  H          -6.928582             9.598080             2.978379            0             0.031932    [1[6[8][1][1]]]                                             
  H          -5.841982             11.018729            3.005331            0             0.031932    [1[6[8][1][1]]]                                             
  C          -3.676988             6.258992             5.410534            1             0.099454    [6[8[1]][1][1][1]]                                          
  O          -2.437939             6.218606             6.109411            1            -0.597823    [8[6[1][1][1]][1]]                                          
  H          -2.542098             5.874862             6.986939            1             0.402573    [1[8[6]]]                                                   
  H          -4.129947             5.276658             5.246592            1             0.031932    [1[6[8][1][1]]]                                             
  H          -4.294873             7.006507             5.893704            1             0.031932    [1[6[8][1][1]]]                                             
  H          -3.527705             6.585124             4.395753            1             0.031932    [1[6[8][1][1]]]                                             
