12

  C           7.285926             0.821066             2.316241            0             0.099454    [6[8[1]][1][1][1]]                                          
  O           7.532912             0.471736             1.007627            0            -0.597823    [8[6[1][1][1]][1]]                                          
  H           8.045949            -0.406475             0.930814            0             0.402573    [1[8[6]]]                                                   
  H           7.486048            -0.087081             3.004934            0             0.031932    [1[6[8][1][1]]]                                             
  H           7.841240             1.695538             2.765298            0             0.031932    [1[6[8][1][1]]]                                             
  H           6.188296             0.937388             2.320612            0             0.031932    [1[6[8][1][1]]]                                             
  C           10.942558           -2.522075             4.385811            1             0.099454    [6[8[1]][1][1][1]]                                          
  O           10.973613           -3.427735             5.412486            1            -0.597823    [8[6[1][1][1]][1]]                                          
  H           11.362989           -4.179425             5.037580            1             0.402573    [1[8[6]]]                                                   
  H           11.900698           -2.019428             4.321429            1             0.031932    [1[6[8][1][1]]]                                             
  H           10.745459           -3.035837             3.524915            1             0.031932    [1[6[8][1][1]]]                                             
  H           10.154383           -1.765396             4.563391            1             0.031932    [1[6[8][1][1]]]                                             
