12

  C           7.735640            -3.628557            -5.394134            0             0.099454    [6[8[1]][1][1][1]]                                          
  O           6.374040            -3.628548            -5.142410            0            -0.597823    [8[6[1][1][1]][1]]                                          
  H           5.933957            -4.477045            -5.105908            0             0.402573    [1[8[6]]]                                                   
  H           8.304852            -3.877057            -4.570331            0             0.031932    [1[6[8][1][1]]]                                             
  H           7.857922            -4.475036            -6.074864            0             0.031932    [1[6[8][1][1]]]                                             
  H           8.076524            -2.769222            -5.967372            0             0.031932    [1[6[8][1][1]]]                                             
  C           3.771082            -0.084111            -5.364219            1             0.099454    [6[8[1]][1][1][1]]                                          
  O           2.789198             0.944553            -5.009210            1            -0.597823    [8[6[1][1][1]][1]]                                          
  H           2.732328             1.510619            -5.748746            1             0.402573    [1[8[6]]]                                                   
  H           4.269562            -0.378328            -4.423374            1             0.031932    [1[6[8][1][1]]]                                             
  H           3.274497            -0.961496            -5.774441            1             0.031932    [1[6[8][1][1]]]                                             
  H           4.520300             0.267564            -5.941169            1             0.031932    [1[6[8][1][1]]]                                             
