12

  C          -6.988085             5.917320            -1.756806            0             0.099454    [6[8[1]][1][1][1]]                                          
  O          -5.841079             5.346315            -1.198149            0            -0.597823    [8[6[1][1][1]][1]]                                          
  H          -6.238028             4.725105            -0.596400            0             0.402573    [1[8[6]]]                                                   
  H          -7.469596             5.138823            -2.402609            0             0.031932    [1[6[8][1][1]]]                                             
  H          -7.670168             6.304700            -1.043612            0             0.031932    [1[6[8][1][1]]]                                             
  H          -6.732474             6.712058            -2.340388            0             0.031932    [1[6[8][1][1]]]                                             
  C          -7.550475             9.806501            -0.603258            1             0.099454    [6[8[1]][1][1][1]]                                          
  O          -7.865887             10.973173           -1.323224            1            -0.597823    [8[6[1][1][1]][1]]                                          
  H          -7.785045             10.780546           -2.221348            1             0.402573    [1[8[6]]]                                                   
  H          -6.566115             9.411658            -0.904041            1             0.031932    [1[6[8][1][1]]]                                             
  H          -7.466330             9.899597             0.516049            1             0.031932    [1[6[8][1][1]]]                                             
  H          -8.253710             8.914090            -0.880003            1             0.031932    [1[6[8][1][1]]]                                             
