12

  C          -0.845752            -4.625808            -7.298877            0             0.099454    [6[8[1]][1][1][1]]                                          
  O          -0.258401            -5.656409            -6.488654            0            -0.597823    [8[6[1][1][1]][1]]                                          
  H           0.575226            -5.883692            -6.900623            0             0.402573    [1[8[6]]]                                                   
  H          -1.613276            -4.003032            -6.829456            0             0.031932    [1[6[8][1][1]]]                                             
  H          -0.048464            -3.907346            -7.509188            0             0.031932    [1[6[8][1][1]]]                                             
  H          -1.266563            -5.129477            -8.193426            0             0.031932    [1[6[8][1][1]]]                                             
  C           3.613948            -6.210664            -5.931045            1             0.099454    [6[8[1]][1][1][1]]                                          
  O           2.708415            -6.137613            -7.009225            1            -0.597823    [8[6[1][1][1]][1]]                                          
  H           3.023668            -5.348416            -7.442372            1             0.402573    [1[8[6]]]                                                   
  H           3.590139            -5.380667            -5.288021            1             0.031932    [1[6[8][1][1]]]                                             
  H           3.358041            -7.056991            -5.250480            1             0.031932    [1[6[8][1][1]]]                                             
  H           4.647743            -6.437943            -6.131150            1             0.031932    [1[6[8][1][1]]]                                             
