12

  C          -4.463582            -1.354472             0.559463            0             0.099454    [6[8[1]][1][1][1]]                                          
  O          -5.340438            -2.213762            -0.128602            0            -0.597823    [8[6[1][1][1]][1]]                                          
  H          -6.211150            -1.951602            -0.000589            0             0.402573    [1[8[6]]]                                                   
  H          -4.627158            -1.465617             1.596524            0             0.031932    [1[6[8][1][1]]]                                             
  H          -3.468846            -1.728514             0.454134            0             0.031932    [1[6[8][1][1]]]                                             
  H          -4.436178            -0.307758             0.291256            0             0.031932    [1[6[8][1][1]]]                                             
  C          -6.765205             1.697143             0.374729            1             0.099454    [6[8[1]][1][1][1]]                                          
  O          -5.553797             1.993042            -0.275726            1            -0.597823    [8[6[1][1][1]][1]]                                          
  H          -4.852191             1.883917             0.424422            1             0.402573    [1[8[6]]]                                                   
  H          -7.021550             2.335747             1.241367            1             0.031932    [1[6[8][1][1]]]                                             
  H          -7.545263             1.932627            -0.311194            1             0.031932    [1[6[8][1][1]]]                                             
  H          -6.856817             0.635440             0.722618            1             0.031932    [1[6[8][1][1]]]                                             
