12

  C          -9.460971            -5.850150            -9.983236            0             0.099454    [6[8[1]][1][1][1]]                                          
  O          -8.591912            -6.718918            -10.686473           0            -0.597823    [8[6[1][1][1]][1]]                                          
  H          -8.695396            -7.506844            -10.221084           0             0.402573    [1[8[6]]]                                                   
  H          -10.460182           -6.178799            -10.083656           0             0.031932    [1[6[8][1][1]]]                                             
  H          -9.193688            -5.917862            -8.911150            0             0.031932    [1[6[8][1][1]]]                                             
  H          -9.460853            -4.773154            -10.286841           0             0.031932    [1[6[8][1][1]]]                                             
  C          -6.482326            -3.038393            -5.791056            1             0.099454    [6[8[1]][1][1][1]]                                          
  O          -6.057388            -3.289651            -4.501937            1            -0.597823    [8[6[1][1][1]][1]]                                          
  H          -5.902887            -2.445885            -4.129103            1             0.402573    [1[8[6]]]                                                   
  H          -5.685988            -2.839495            -6.488605            1             0.031932    [1[6[8][1][1]]]                                             
  H          -7.109373            -3.769275            -6.260965            1             0.031932    [1[6[8][1][1]]]                                             
  H          -7.041879            -2.097533            -5.741855            1             0.031932    [1[6[8][1][1]]]                                             
