12

  C           1.310873             5.480661            -10.596627           0             0.099454    [6[8[1]][1][1][1]]                                          
  O           0.747847             6.689534            -11.032154           0            -0.597823    [8[6[1][1][1]][1]]                                          
  H           0.824475             7.305448            -10.293095           0             0.402573    [1[8[6]]]                                                   
  H           1.374526             4.828493            -11.516798           0             0.031932    [1[6[8][1][1]]]                                             
  H           2.282109             5.512912            -10.040844           0             0.031932    [1[6[8][1][1]]]                                             
  H           0.718205             4.863651            -9.854394            0             0.031932    [1[6[8][1][1]]]                                             
  C           4.454285             8.442810            -10.203848           1             0.099454    [6[8[1]][1][1][1]]                                          
  O           4.742119             7.468918            -9.203027            1            -0.597823    [8[6[1][1][1]][1]]                                          
  H           5.619634             7.120077            -9.380963            1             0.402573    [1[8[6]]]                                                   
  H           3.502124             8.966420            -10.208412           1             0.031932    [1[6[8][1][1]]]                                             
  H           5.283847             9.216820            -10.153765           1             0.031932    [1[6[8][1][1]]]                                             
  H           4.534951             7.926899            -11.162787           1             0.031932    [1[6[8][1][1]]]                                             
