12

  C          -1.552654            -0.347999             4.263472            0             0.099454    [6[8[1]][1][1][1]]                                          
  O          -0.675985            -0.786314             3.238730            0            -0.597823    [8[6[1][1][1]][1]]                                          
  H          -1.311521            -0.903148             2.507645            0             0.402573    [1[8[6]]]                                                   
  H          -1.893925             0.644904             3.934240            0             0.031932    [1[6[8][1][1]]]                                             
  H          -2.420135            -0.936720             4.503697            0             0.031932    [1[6[8][1][1]]]                                             
  H          -1.047543            -0.169033             5.200596            0             0.031932    [1[6[8][1][1]]]                                             
  C          -3.878778             5.226953             5.247885            1             0.099454    [6[8[1]][1][1][1]]                                          
  O          -5.224629             5.348015             5.544506            1            -0.597823    [8[6[1][1][1]][1]]                                          
  H          -5.445611             4.485523             5.841927            1             0.402573    [1[8[6]]]                                                   
  H          -3.546686             4.160902             5.104983            1             0.031932    [1[6[8][1][1]]]                                             
  H          -3.680878             5.721709             4.364814            1             0.031932    [1[6[8][1][1]]]                                             
  H          -3.217609             5.667860             6.069473            1             0.031932    [1[6[8][1][1]]]                                             
