12

  C           4.888409             3.253564             1.564337            0             0.099454    [6[8[1]][1][1][1]]                                          
  O           3.677006             2.583596             1.661210            0            -0.597823    [8[6[1][1][1]][1]]                                          
  H           3.206091             3.184549             2.313653            0             0.402573    [1[8[6]]]                                                   
  H           4.815171             4.370015             1.276239            0             0.031932    [1[6[8][1][1]]]                                             
  H           5.420325             3.232220             2.517922            0             0.031932    [1[6[8][1][1]]]                                             
  H           5.548820             2.761538             0.826897            0             0.031932    [1[6[8][1][1]]]                                             
  C           6.435517             5.502492             3.240759            1             0.099454    [6[8[1]][1][1][1]]                                          
  O           7.653140             4.836100             3.103673            1            -0.597823    [8[6[1][1][1]][1]]                                          
  H           7.754679             4.113774             3.731142            1             0.402573    [1[8[6]]]                                                   
  H           6.451900             6.412907             2.643708            1             0.031932    [1[6[8][1][1]]]                                             
  H           5.674505             4.828367             2.799575            1             0.031932    [1[6[8][1][1]]]                                             
  H           6.227441             5.836066             4.251871            1             0.031932    [1[6[8][1][1]]]                                             
