12

  C          -5.857692             3.293914             9.827698            0             0.099454    [6[8[1]][1][1][1]]                                          
  O          -6.747446             4.192622             10.427490           0            -0.597823    [8[6[1][1][1]][1]]                                          
  H          -7.442084             4.299272             9.837414            0             0.402573    [1[8[6]]]                                                   
  H          -5.000361             3.085157             10.455396           0             0.031932    [1[6[8][1][1]]]                                             
  H          -6.315586             2.270541             9.609744            0             0.031932    [1[6[8][1][1]]]                                             
  H          -5.414708             3.642596             8.841099            0             0.031932    [1[6[8][1][1]]]                                             
  C          -10.093289            1.103940             9.916650            1             0.099454    [6[8[1]][1][1][1]]                                          
  O          -10.461866            2.426109             9.879604            1            -0.597823    [8[6[1][1][1]][1]]                                          
  H          -9.652044             3.001358             9.833511            1             0.402573    [1[8[6]]]                                                   
  H          -9.199362             0.937206             10.515245           1             0.031932    [1[6[8][1][1]]]                                             
  H          -10.851303            0.534979             10.498085           1             0.031932    [1[6[8][1][1]]]                                             
  H          -10.048276            0.648209             8.947210            1             0.031932    [1[6[8][1][1]]]                                             
