12

  C           0.144095            -7.252960             6.891746            0             0.099454    [6[8[1]][1][1][1]]                                          
  O           0.342838            -6.072351             7.719867            0            -0.597823    [8[6[1][1][1]][1]]                                          
  H           0.144008            -6.243576             8.650731            0             0.402573    [1[8[6]]]                                                   
  H          -0.412885            -7.910515             7.511644            0             0.031932    [1[6[8][1][1]]]                                             
  H          -0.473165            -7.072138             6.063705            0             0.031932    [1[6[8][1][1]]]                                             
  H           1.048022            -7.622503             6.470122            0             0.031932    [1[6[8][1][1]]]                                             
  C          -4.439394            -5.866600             5.348677            1             0.099454    [6[8[1]][1][1][1]]                                          
  O          -4.186637            -7.062473             6.134142            1            -0.597823    [8[6[1][1][1]][1]]                                          
  H          -3.738023            -6.884358             6.968323            1             0.402573    [1[8[6]]]                                                   
  H          -4.397404            -6.036696             4.230191            1             0.031932    [1[6[8][1][1]]]                                             
  H          -5.435929            -5.555591             5.585817            1             0.031932    [1[6[8][1][1]]]                                             
  H          -3.862727            -4.997880             5.734016            1             0.031932    [1[6[8][1][1]]]                                             
