12

  C           3.963104            -1.894302            -6.831238            0             0.099454    [6[8[1]][1][1][1]]                                          
  O           4.841024            -1.628224            -5.724773            0            -0.597823    [8[6[1][1][1]][1]]                                          
  H           5.315042            -2.462843            -5.462940            0             0.402573    [1[8[6]]]                                                   
  H           3.675892            -0.939994            -7.360445            0             0.031932    [1[6[8][1][1]]]                                             
  H           4.399781            -2.566132            -7.606293            0             0.031932    [1[6[8][1][1]]]                                             
  H           3.045565            -2.437522            -6.505905            0             0.031932    [1[6[8][1][1]]]                                             
  C           4.437092            -0.808071            -10.256159           1             0.099454    [6[8[1]][1][1][1]]                                          
  O           3.049270            -0.932101            -9.980154            1            -0.597823    [8[6[1][1][1]][1]]                                          
  H           2.555484            -1.028475            -10.807407           1             0.402573    [1[8[6]]]                                                   
  H           5.159058            -1.269933            -9.547572            1             0.031932    [1[6[8][1][1]]]                                             
  H           4.795339            -1.273333            -11.214875           1             0.031932    [1[6[8][1][1]]]                                             
  H           4.641081             0.196038            -10.414987           1             0.031932    [1[6[8][1][1]]]                                             
