12

  C           2.965190             6.623918             0.967026            0             0.099454    [6[8[1]][1][1][1]]                                          
  O           3.087321             7.178349             2.250108            0            -0.597823    [8[6[1][1][1]][1]]                                          
  H           2.300229             6.975506             2.740599            0             0.402573    [1[8[6]]]                                                   
  H           3.202862             5.599845             0.971613            0             0.031932    [1[6[8][1][1]]]                                             
  H           1.936361             6.698119             0.639535            0             0.031932    [1[6[8][1][1]]]                                             
  H           3.581406             7.209717             0.268602            0             0.031932    [1[6[8][1][1]]]                                             
  C          -0.295640             5.583411             4.615057            1             0.099454    [6[8[1]][1][1][1]]                                          
  O           0.703822             6.013300             3.708380            1            -0.597823    [8[6[1][1][1]][1]]                                          
  H           0.533030             5.490817             2.814526            1             0.402573    [1[8[6]]]                                                   
  H          -0.269927             4.481626             4.780587            1             0.031932    [1[6[8][1][1]]]                                             
  H          -0.123123             6.165248             5.600437            1             0.031932    [1[6[8][1][1]]]                                             
  H          -1.338070             5.897622             4.206678            1             0.031932    [1[6[8][1][1]]]                                             
