12

  C          -5.176520            -0.642955             5.468790            0             0.099454    [6[8[1]][1][1][1]]                                          
  O          -4.038877            -1.295501             5.945422            0            -0.597823    [8[6[1][1][1]][1]]                                          
  H          -4.126203            -2.205438             5.650035            0             0.402573    [1[8[6]]]                                                   
  H          -5.286508            -0.774904             4.375683            0             0.031932    [1[6[8][1][1]]]                                             
  H          -6.105946            -0.911018             5.899308            0             0.031932    [1[6[8][1][1]]]                                             
  H          -5.090722             0.414521             5.747167            0             0.031932    [1[6[8][1][1]]]                                             
  C          -0.641337            -1.278704             2.735910            1             0.099454    [6[8[1]][1][1][1]]                                          
  O          -0.235503            -1.995124             1.558616            1            -0.597823    [8[6[1][1][1]][1]]                                          
  H          -0.216393            -1.287634             0.896333            1             0.402573    [1[8[6]]]                                                   
  H          -1.715056            -1.169015             2.646839            1             0.031932    [1[6[8][1][1]]]                                             
  H          -0.486806            -1.780883             3.720906            1             0.031932    [1[6[8][1][1]]]                                             
  H          -0.073791            -0.337690             2.824643            1             0.031932    [1[6[8][1][1]]]                                             
