12

  C           2.699402            -3.634339            -11.448789           0             0.099454    [6[8[1]][1][1][1]]                                          
  O           3.095201            -3.066923            -10.252742           0            -0.597823    [8[6[1][1][1]][1]]                                          
  H           3.010599            -3.773326            -9.633671            0             0.402573    [1[8[6]]]                                                   
  H           2.888609            -4.616307            -11.672325           0             0.031932    [1[6[8][1][1]]]                                             
  H           1.616299            -3.610211            -11.627145           0             0.031932    [1[6[8][1][1]]]                                             
  H           3.167318            -3.013800            -12.175437           0             0.031932    [1[6[8][1][1]]]                                             
  C           3.363542            -8.764673            -10.582646           1             0.099454    [6[8[1]][1][1][1]]                                          
  O           3.248719            -7.391291            -11.051283           1            -0.597823    [8[6[1][1][1]][1]]                                          
  H           2.560820            -7.434277            -11.711269           1             0.402573    [1[8[6]]]                                                   
  H           2.413977            -9.288456            -10.532275           1             0.031932    [1[6[8][1][1]]]                                             
  H           3.955452            -9.375713            -11.328671           1             0.031932    [1[6[8][1][1]]]                                             
  H           3.829267            -8.886131            -9.608058            1             0.031932    [1[6[8][1][1]]]                                             
