12

  C           2.728777            -5.694057            -8.740329            0             0.099454    [6[8[1]][1][1][1]]                                          
  O           2.324008            -5.912598            -10.072786           0            -0.597823    [8[6[1][1][1]][1]]                                          
  H           2.987133            -6.439181            -10.468047           0             0.402573    [1[8[6]]]                                                   
  H           2.161046            -4.898734            -8.325374            0             0.031932    [1[6[8][1][1]]]                                             
  H           2.535671            -6.576832            -8.025007            0             0.031932    [1[6[8][1][1]]]                                             
  H           3.746550            -5.495858            -8.741357            0             0.031932    [1[6[8][1][1]]]                                             
  C           1.442386            -2.274042            -9.890710            1             0.099454    [6[8[1]][1][1][1]]                                          
  O           0.592274            -2.089816            -8.804962            1            -0.597823    [8[6[1][1][1]][1]]                                          
  H           0.747935            -1.204462            -8.573068            1             0.402573    [1[8[6]]]                                                   
  H           1.681016            -1.319483            -10.309592           1             0.031932    [1[6[8][1][1]]]                                             
  H           2.439277            -2.726638            -9.619208            1             0.031932    [1[6[8][1][1]]]                                             
  H           0.897639            -2.841825            -10.695493           1             0.031932    [1[6[8][1][1]]]                                             
