12

  C           6.745725             9.675620             6.100346            0             0.099454    [6[8[1]][1][1][1]]                                          
  O           6.065059             8.799649             5.211877            0            -0.597823    [8[6[1][1][1]][1]]                                          
  H           5.292187             9.106264             4.782544            0             0.402573    [1[8[6]]]                                                   
  H           7.817412             9.817642             5.772021            0             0.031932    [1[6[8][1][1]]]                                             
  H           6.263485             10.669242            6.151953            0             0.031932    [1[6[8][1][1]]]                                             
  H           6.794358             9.337570             7.126804            0             0.031932    [1[6[8][1][1]]]                                             
  C           3.733299             6.859610             2.720790            1             0.099454    [6[8[1]][1][1][1]]                                          
  O           3.502867             7.423119             1.417121            1            -0.597823    [8[6[1][1][1]][1]]                                          
  H           3.279573             8.337409             1.449932            1             0.402573    [1[8[6]]]                                                   
  H           4.146338             5.882763             2.750245            1             0.031932    [1[6[8][1][1]]]                                             
  H           4.371896             7.503709             3.329809            1             0.031932    [1[6[8][1][1]]]                                             
  H           2.808982             6.745300             3.255661            1             0.031932    [1[6[8][1][1]]]                                             
