12

  C          -4.441860             0.252273            -10.388572           0             0.099454    [6[8[1]][1][1][1]]                                          
  O          -5.831980             0.272758            -10.110588           0            -0.597823    [8[6[1][1][1]][1]]                                          
  H          -6.199616             0.251479            -11.006176           0             0.402573    [1[8[6]]]                                                   
  H          -4.139284             1.101493            -11.007962           0             0.031932    [1[6[8][1][1]]]                                             
  H          -3.881177             0.211888            -9.421861            0             0.031932    [1[6[8][1][1]]]                                             
  H          -4.225145            -0.703041            -10.844103           0             0.031932    [1[6[8][1][1]]]                                             
  C          -5.779180            -3.428768            -7.105090            1             0.099454    [6[8[1]][1][1][1]]                                          
  O          -6.965934            -3.671722            -7.741450            1            -0.597823    [8[6[1][1][1]][1]]                                          
  H          -7.515566            -4.048091            -7.069416            1             0.402573    [1[8[6]]]                                                   
  H          -5.275618            -4.387856            -6.873689            1             0.031932    [1[6[8][1][1]]]                                             
  H          -5.084575            -2.798522            -7.654741            1             0.031932    [1[6[8][1][1]]]                                             
  H          -5.954719            -2.892347            -6.155258            1             0.031932    [1[6[8][1][1]]]                                             
