12

  C           1.311991             8.258281             3.248429            0             0.099454    [6[8[1]][1][1][1]]                                          
  O           0.436384             8.338334             4.328784            0            -0.597823    [8[6[1][1][1]][1]]                                          
  H          -0.298761             8.938756             4.145385            0             0.402573    [1[8[6]]]                                                   
  H           2.209316             7.776873             3.545253            0             0.031932    [1[6[8][1][1]]]                                             
  H           0.941491             7.711517             2.293017            0             0.031932    [1[6[8][1][1]]]                                             
  H           1.692251             9.258311             2.986769            0             0.031932    [1[6[8][1][1]]]                                             
  C          -2.001623             9.540740             2.373419            1             0.099454    [6[8[1]][1][1][1]]                                          
  O          -1.267555             10.275526            3.303355            1            -0.597823    [8[6[1][1][1]][1]]                                          
  H          -1.410999             11.223802            3.044789            1             0.402573    [1[8[6]]]                                                   
  H          -3.071432             9.702160             2.549565            1             0.031932    [1[6[8][1][1]]]                                             
  H          -1.865324             9.894794             1.344526            1             0.031932    [1[6[8][1][1]]]                                             
  H          -1.822595             8.448200             2.471200            1             0.031932    [1[6[8][1][1]]]                                             
