12

  C          -9.376882             2.477543            -4.713638            0             0.099454    [6[8[1]][1][1][1]]                                          
  O          -8.879101             1.249759            -4.251672            0            -0.597823    [8[6[1][1][1]][1]]                                          
  H          -8.504587             1.328272            -3.362079            0             0.402573    [1[8[6]]]                                                   
  H          -8.510873             3.150077            -4.795730            0             0.031932    [1[6[8][1][1]]]                                             
  H          -9.919677             2.295343            -5.655822            0             0.031932    [1[6[8][1][1]]]                                             
  H          -10.081456            2.950234            -3.991283            0             0.031932    [1[6[8][1][1]]]                                             
  C          -9.503273             1.869471            -0.794715            1             0.099454    [6[8[1]][1][1][1]]                                          
  O          -8.314313             1.494020            -1.485974            1            -0.597823    [8[6[1][1][1]][1]]                                          
  H          -7.717175             1.049972            -0.914766            1             0.402573    [1[8[6]]]                                                   
  H          -9.793729             1.122150             0.018869            1             0.031932    [1[6[8][1][1]]]                                             
  H          -9.471223             2.846437            -0.338861            1             0.031932    [1[6[8][1][1]]]                                             
  H          -10.320531            1.933585            -1.513166            1             0.031932    [1[6[8][1][1]]]                                             
