12

  C          -2.881200             5.269052             1.066537            0             0.099454    [6[8[1]][1][1][1]]                                          
  O          -2.445104             4.075524             0.341486            0            -0.597823    [8[6[1][1][1]][1]]                                          
  H          -2.756895             4.205874            -0.534556            0             0.402573    [1[8[6]]]                                                   
  H          -3.832270             5.165989             1.402556            0             0.031932    [1[6[8][1][1]]]                                             
  H          -2.191036             5.618454             1.900053            0             0.031932    [1[6[8][1][1]]]                                             
  H          -2.957396             6.094008             0.292697            0             0.031932    [1[6[8][1][1]]]                                             
  C           2.048376             4.863387             1.672935            1             0.099454    [6[8[1]][1][1][1]]                                          
  O           2.054165             6.299924             1.791389            1            -0.597823    [8[6[1][1][1]][1]]                                          
  H           2.832459             6.575149             2.255047            1             0.402573    [1[8[6]]]                                                   
  H           1.922047             4.439233             2.619953            1             0.031932    [1[6[8][1][1]]]                                             
  H           1.223006             4.407376             1.191580            1             0.031932    [1[6[8][1][1]]]                                             
  H           3.058283             4.518590             1.360563            1             0.031932    [1[6[8][1][1]]]                                             
