12

  C          -6.106169            -7.139025             5.478536            0             0.099454    [6[8[1]][1][1][1]]                                          
  O          -7.250673            -6.358448             5.904261            0            -0.597823    [8[6[1][1][1]][1]]                                          
  H          -7.580413            -5.854131             5.158850            0             0.402573    [1[8[6]]]                                                   
  H          -5.225424            -6.537199             5.228452            0             0.031932    [1[6[8][1][1]]]                                             
  H          -5.853161            -7.888103             6.266709            0             0.031932    [1[6[8][1][1]]]                                             
  H          -6.381485            -7.683977             4.536477            0             0.031932    [1[6[8][1][1]]]                                             
  C          -6.266477            -4.168455             2.455603            1             0.099454    [6[8[1]][1][1][1]]                                          
  O          -7.175860            -4.854637             3.321808            1            -0.597823    [8[6[1][1][1]][1]]                                          
  H          -7.764477            -4.120895             3.614753            1             0.402573    [1[8[6]]]                                                   
  H          -5.463502            -3.663733             3.000096            1             0.031932    [1[6[8][1][1]]]                                             
  H          -5.628157            -4.916968             1.894217            1             0.031932    [1[6[8][1][1]]]                                             
  H          -6.708523            -3.465401             1.673452            1             0.031932    [1[6[8][1][1]]]                                             
