12

  C          -0.024372            -3.885703            -9.135694            0             0.099454    [6[8[1]][1][1][1]]                                          
  O           1.193417            -4.571755            -8.830151            0            -0.597823    [8[6[1][1][1]][1]]                                          
  H           1.057361            -5.472801            -8.697428            0             0.402573    [1[8[6]]]                                                   
  H           0.187566            -2.775879            -9.153679            0             0.031932    [1[6[8][1][1]]]                                             
  H          -0.366519            -4.130893            -10.134858           0             0.031932    [1[6[8][1][1]]]                                             
  H          -0.855381            -4.094383            -8.449808            0             0.031932    [1[6[8][1][1]]]                                             
  C           3.912600            -3.565840            -6.417021            1             0.099454    [6[8[1]][1][1][1]]                                          
  O           2.525817            -3.440427            -6.302536            1            -0.597823    [8[6[1][1][1]][1]]                                          
  H           2.221452            -3.410622            -7.310455            1             0.402573    [1[8[6]]]                                                   
  H           4.374043            -2.651804            -6.804052            1             0.031932    [1[6[8][1][1]]]                                             
  H           4.332472            -3.682136            -5.406038            1             0.031932    [1[6[8][1][1]]]                                             
  H           4.194898            -4.387226            -7.079261            1             0.031932    [1[6[8][1][1]]]                                             
