12

  C           2.972572            -0.901774             1.372664            0             0.099454    [6[8[1]][1][1][1]]                                          
  O           3.715877            -0.053173             0.503747            0            -0.597823    [8[6[1][1][1]][1]]                                          
  H           4.643713            -0.350892             0.272494            0             0.402573    [1[8[6]]]                                                   
  H           2.042537            -0.463022             1.683760            0             0.031932    [1[6[8][1][1]]]                                             
  H           2.718830            -1.816522             0.938662            0             0.031932    [1[6[8][1][1]]]                                             
  H           3.540776            -1.169969             2.319029            0             0.031932    [1[6[8][1][1]]]                                             
  C           6.349488             1.958305            -0.293641            1             0.099454    [6[8[1]][1][1][1]]                                          
  O           6.402245             1.534939            -1.668295            1            -0.597823    [8[6[1][1][1]][1]]                                          
  H           5.500103             1.659178            -2.082639            1             0.402573    [1[8[6]]]                                                   
  H           7.230434             2.498772            -0.038362            1             0.031932    [1[6[8][1][1]]]                                             
  H           5.513317             2.605014            -0.130240            1             0.031932    [1[6[8][1][1]]]                                             
  H           6.275680             1.143591             0.346185            1             0.031932    [1[6[8][1][1]]]                                             
