12

  C          -4.484758             8.407967             3.688813            0             0.099454    [6[8[1]][1][1][1]]                                          
  O          -4.479491             9.748562             3.262175            0            -0.597823    [8[6[1][1][1]][1]]                                          
  H          -3.579098             10.059647            3.079137            0             0.402573    [1[8[6]]]                                                   
  H          -4.119576             7.755454             2.874660            0             0.031932    [1[6[8][1][1]]]                                             
  H          -3.874546             8.304731             4.547465            0             0.031932    [1[6[8][1][1]]]                                             
  H          -5.538848             8.038277             3.916587            0             0.031932    [1[6[8][1][1]]]                                             
  C          -0.864257             9.282511             2.973942            1             0.099454    [6[8[1]][1][1][1]]                                          
  O          -1.675985             10.298137            3.457449            1            -0.597823    [8[6[1][1][1]][1]]                                          
  H          -1.283712             11.111861            3.195173            1             0.402573    [1[8[6]]]                                                   
  H          -0.078117             8.978090             3.680979            1             0.031932    [1[6[8][1][1]]]                                             
  H          -1.401807             8.349232             2.753786            1             0.031932    [1[6[8][1][1]]]                                             
  H          -0.348053             9.605425             2.014177            1             0.031932    [1[6[8][1][1]]]                                             
