12

  C          -0.575067            -10.156360            7.923037            0             0.099454    [6[8[1]][1][1][1]]                                          
  O           0.034573            -8.867391             8.103202            0            -0.597823    [8[6[1][1][1]][1]]                                          
  H           0.063083            -8.534555             7.191090            0             0.402573    [1[8[6]]]                                                   
  H          -0.260916            -10.777409            8.756213            0             0.031932    [1[6[8][1][1]]]                                             
  H          -1.647497            -10.080484            7.981376            0             0.031932    [1[6[8][1][1]]]                                             
  H          -0.388357            -10.646817            7.019382            0             0.031932    [1[6[8][1][1]]]                                             
  C           0.463578            -8.435352             4.585591            1             0.099454    [6[8[1]][1][1][1]]                                          
  O          -0.166651            -7.334462             5.118559            1            -0.597823    [8[6[1][1][1]][1]]                                          
  H          -1.046295            -7.331275             4.800293            1             0.402573    [1[8[6]]]                                                   
  H           1.138323            -8.842697             5.377777            1             0.031932    [1[6[8][1][1]]]                                             
  H          -0.148511            -9.206932             4.271902            1             0.031932    [1[6[8][1][1]]]                                             
  H           1.138313            -8.130747             3.739208            1             0.031932    [1[6[8][1][1]]]                                             
