12

  C          -3.298790            -3.261726            -5.806009            0             0.099454    [6[8[1]][1][1][1]]                                          
  O          -2.323678            -3.800694            -6.630534            0            -0.597823    [8[6[1][1][1]][1]]                                          
  H          -2.343861            -3.387255            -7.476994            0             0.402573    [1[8[6]]]                                                   
  H          -2.987311            -2.325919            -5.315744            0             0.031932    [1[6[8][1][1]]]                                             
  H          -4.237736            -3.025110            -6.254356            0             0.031932    [1[6[8][1][1]]]                                             
  H          -3.616633            -3.976953            -5.027807            0             0.031932    [1[6[8][1][1]]]                                             
  C           0.218613            -3.774525            -3.429401            1             0.099454    [6[8[1]][1][1][1]]                                          
  O          -0.607822            -3.042870            -4.238015            1            -0.597823    [8[6[1][1][1]][1]]                                          
  H          -0.933965            -3.609689            -4.932141            1             0.402573    [1[8[6]]]                                                   
  H           0.524269            -3.125596            -2.622507            1             0.031932    [1[6[8][1][1]]]                                             
  H          -0.271415            -4.676162            -3.031674            1             0.031932    [1[6[8][1][1]]]                                             
  H           1.146558            -4.186064            -3.897141            1             0.031932    [1[6[8][1][1]]]                                             
