6

  C           11.570943            1.338819            -9.715413            0             0.089063    [6[8[1]][1][1][1]]                                          
  O           11.571002            2.557728            -10.509987           0            -0.604789    [8[6[1][1][1]][1]]                                          
  H           12.360266            2.550844            -11.080997           0             0.406250    [1[8[6]]]                                                   
  H           10.635606            1.300332            -9.064699            0             0.036492    [1[6[8][1][1]]]                                             
  H           11.598324            0.446032            -10.312189           0             0.036492    [1[6[8][1][1]]]                                             
  H           12.452207            1.194146            -9.113946            0             0.036492    [1[6[8][1][1]]]                                             
