12

  C           4.599833             1.923888             6.602593            0             0.099454    [6[8[1]][1][1][1]]                                          
  O           3.786116             2.729609             7.484004            0            -0.597823    [8[6[1][1][1]][1]]                                          
  H           3.607876             3.440949             6.897519            0             0.402573    [1[8[6]]]                                                   
  H           5.455821             2.534420             6.223668            0             0.031932    [1[6[8][1][1]]]                                             
  H           5.103900             1.124986             7.097621            0             0.031932    [1[6[8][1][1]]]                                             
  H           4.070648             1.512387             5.743250            0             0.031932    [1[6[8][1][1]]]                                             
  C           7.470692             6.028601             6.508345            1             0.099454    [6[8[1]][1][1][1]]                                          
  O           7.339370             6.917307             7.588808            1            -0.597823    [8[6[1][1][1]][1]]                                          
  H           7.231223             7.717244             7.138052            1             0.402573    [1[8[6]]]                                                   
  H           7.922001             5.088984             6.804653            1             0.031932    [1[6[8][1][1]]]                                             
  H           6.594084             5.881988             5.978503            1             0.031932    [1[6[8][1][1]]]                                             
  H           8.218591             6.480001             5.812974            1             0.031932    [1[6[8][1][1]]]                                             
