12

  C           6.480167             4.850157             8.017725            0             0.099454    [6[8[1]][1][1][1]]                                          
  O           6.846940             3.890680             7.044795            0            -0.597823    [8[6[1][1][1]][1]]                                          
  H           7.195709             4.304133             6.297054            0             0.402573    [1[8[6]]]                                                   
  H           7.306813             5.169564             8.669647            0             0.031932    [1[6[8][1][1]]]                                             
  H           6.202793             5.826223             7.485602            0             0.031932    [1[6[8][1][1]]]                                             
  H           5.554086             4.491351             8.572135            0             0.031932    [1[6[8][1][1]]]                                             
  C           10.035032            1.912797             7.566019            1             0.099454    [6[8[1]][1][1][1]]                                          
  O           10.625617            0.884139             8.383062            1            -0.597823    [8[6[1][1][1]][1]]                                          
  H           11.344601            1.395550             8.871001            1             0.402573    [1[8[6]]]                                                   
  H           9.740242             2.853017             8.070987            1             0.031932    [1[6[8][1][1]]]                                             
  H           10.666540            2.061341             6.621544            1             0.031932    [1[6[8][1][1]]]                                             
  H           9.065129             1.550886             7.220289            1             0.031932    [1[6[8][1][1]]]                                             
