12

  C           9.332024            -7.825781            -3.804788            0             0.099454    [6[8[1]][1][1][1]]                                          
  O           8.953421            -7.722838            -5.139420            0            -0.597823    [8[6[1][1][1]][1]]                                          
  H           8.371526            -8.481379            -5.322820            0             0.402573    [1[8[6]]]                                                   
  H           10.157458           -8.605935            -3.657025            0             0.031932    [1[6[8][1][1]]]                                             
  H           9.700460            -6.873416            -3.434979            0             0.031932    [1[6[8][1][1]]]                                             
  H           8.503247            -8.036935            -3.181149            0             0.031932    [1[6[8][1][1]]]                                             
  C           10.496270           -4.482297            -5.145719            1             0.099454    [6[8[1]][1][1][1]]                                          
  O           10.291918           -3.160111            -5.530751            1            -0.597823    [8[6[1][1][1]][1]]                                          
  H           9.844380            -2.723742            -4.778603            1             0.402573    [1[8[6]]]                                                   
  H           9.577831            -4.958504            -4.866205            1             0.031932    [1[6[8][1][1]]]                                             
  H           10.846851           -5.008521            -6.001477            1             0.031932    [1[6[8][1][1]]]                                             
  H           11.192603           -4.632664            -4.323175            1             0.031932    [1[6[8][1][1]]]                                             
