12

  C          -4.531715            -3.327488             3.855180            0             0.099454    [6[8[1]][1][1][1]]                                          
  O          -5.285925            -4.508734             4.030222            0            -0.597823    [8[6[1][1][1]][1]]                                          
  H          -4.623814            -5.225967             3.998889            0             0.402573    [1[8[6]]]                                                   
  H          -4.056107            -3.085744             4.805620            0             0.031932    [1[6[8][1][1]]]                                             
  H          -3.844368            -3.437728             3.013197            0             0.031932    [1[6[8][1][1]]]                                             
  H          -5.163979            -2.483007             3.642173            0             0.031932    [1[6[8][1][1]]]                                             
  C          -6.546638            -8.521955             5.114871            1             0.099454    [6[8[1]][1][1][1]]                                          
  O          -7.399952            -9.493348             4.657832            1            -0.597823    [8[6[1][1][1]][1]]                                          
  H          -8.075278            -9.706095             5.357748            1             0.402573    [1[8[6]]]                                                   
  H          -7.118130            -7.541197             4.996308            1             0.031932    [1[6[8][1][1]]]                                             
  H          -6.100771            -8.747694             6.103445            1             0.031932    [1[6[8][1][1]]]                                             
  H          -5.678386            -8.451725             4.465441            1             0.031932    [1[6[8][1][1]]]                                             
