12

  C          -4.560682            -4.329770             1.110956            0             0.099454    [6[8[1]][1][1][1]]                                          
  O          -3.928309            -5.024112             2.117217            0            -0.597823    [8[6[1][1][1]][1]]                                          
  H          -3.662203            -5.864956             1.700131            0             0.402573    [1[8[6]]]                                                   
  H          -5.471232            -4.871591             0.797603            0             0.031932    [1[6[8][1][1]]]                                             
  H          -4.921328            -3.343781             1.562688            0             0.031932    [1[6[8][1][1]]]                                             
  H          -3.888416            -4.178399             0.273072            0             0.031932    [1[6[8][1][1]]]                                             
  C          -0.641262            -3.997556             3.460501            1             0.099454    [6[8[1]][1][1][1]]                                          
  O          -1.289227            -3.611036             2.241810            1            -0.597823    [8[6[1][1][1]][1]]                                          
  H          -2.235809            -3.829308             2.249596            1             0.402573    [1[8[6]]]                                                   
  H          -0.552726            -5.112312             3.504210            1             0.031932    [1[6[8][1][1]]]                                             
  H           0.331831            -3.481780             3.610580            1             0.031932    [1[6[8][1][1]]]                                             
  H          -1.286851            -3.741639             4.301010            1             0.031932    [1[6[8][1][1]]]                                             
