12

  C           6.485865             6.830318             0.457606            0             0.099454    [6[8[1]][1][1][1]]                                          
  O           6.958456             6.355031            -0.794069            0            -0.597823    [8[6[1][1][1]][1]]                                          
  H           7.907226             6.370384            -0.741623            0             0.402573    [1[8[6]]]                                                   
  H           6.882538             7.854793             0.749982            0             0.031932    [1[6[8][1][1]]]                                             
  H           5.409756             6.912721             0.368214            0             0.031932    [1[6[8][1][1]]]                                             
  H           6.865832             6.186334             1.267891            0             0.031932    [1[6[8][1][1]]]                                             
  C           3.450819             6.673279            -1.723132            1             0.099454    [6[8[1]][1][1][1]]                                          
  O           4.383026             7.705525            -1.912753            1            -0.597823    [8[6[1][1][1]][1]]                                          
  H           5.261560             7.404493            -1.709815            1             0.402573    [1[8[6]]]                                                   
  H           3.639488             5.964944            -0.949126            1             0.031932    [1[6[8][1][1]]]                                             
  H           2.464917             7.050423            -1.501497            1             0.031932    [1[6[8][1][1]]]                                             
  H           3.294769             6.043042            -2.592645            1             0.031932    [1[6[8][1][1]]]                                             
