12

  C          -9.601561             9.282581             9.896545            0             0.099454    [6[8[1]][1][1][1]]                                          
  O          -9.390411             7.894257             9.876314            0            -0.597823    [8[6[1][1][1]][1]]                                          
  H          -10.174953            7.530108             10.372630           0             0.402573    [1[8[6]]]                                                   
  H          -10.404894            9.461432             9.192427            0             0.031932    [1[6[8][1][1]]]                                             
  H          -10.039641            9.662128             10.858120           0             0.031932    [1[6[8][1][1]]]                                             
  H          -8.695965             9.929362             9.676368            0             0.031932    [1[6[8][1][1]]]                                             
  C          -6.114024             8.217953             11.319970           1             0.099454    [6[8[1]][1][1][1]]                                          
  O          -6.506104             7.313541             10.325054           1            -0.597823    [8[6[1][1][1]][1]]                                          
  H          -7.314344             7.551662             9.853109            1             0.402573    [1[8[6]]]                                                   
  H          -6.957118             8.547202             11.909037           1             0.031932    [1[6[8][1][1]]]                                             
  H          -5.291610             7.829700             11.945249           1             0.031932    [1[6[8][1][1]]]                                             
  H          -5.756528             9.143147             10.897485           1             0.031932    [1[6[8][1][1]]]                                             
