12

  C           7.027536             3.700445             1.588677            0             0.099454    [6[8[1]][1][1][1]]                                          
  O           7.121738             4.093266             0.247516            0            -0.597823    [8[6[1][1][1]][1]]                                          
  H           7.366341             3.333908            -0.299382            0             0.402573    [1[8[6]]]                                                   
  H           8.023769             3.471064             2.076743            0             0.031932    [1[6[8][1][1]]]                                             
  H           6.544191             4.464693             2.197487            0             0.031932    [1[6[8][1][1]]]                                             
  H           6.420623             2.848499             1.708700            0             0.031932    [1[6[8][1][1]]]                                             
  C           6.878222             1.563807            -2.144682            1             0.099454    [6[8[1]][1][1][1]]                                          
  O           6.443353             0.577420            -3.059159            1            -0.597823    [8[6[1][1][1]][1]]                                          
  H           7.212527             0.029790            -3.103457            1             0.402573    [1[8[6]]]                                                   
  H           7.575887             2.206588            -2.697307            1             0.031932    [1[6[8][1][1]]]                                             
  H           6.072569             2.190081            -1.762633            1             0.031932    [1[6[8][1][1]]]                                             
  H           7.382352             1.174466            -1.249020            1             0.031932    [1[6[8][1][1]]]                                             
