12

  C           1.882657            -5.473259            -4.311445            0             0.099454    [6[8[1]][1][1][1]]                                          
  O           1.200089            -6.616802            -4.829966            0            -0.597823    [8[6[1][1][1]][1]]                                          
  H           0.588911            -6.281126            -5.540718            0             0.402573    [1[8[6]]]                                                   
  H           2.877696            -5.712606            -3.843402            0             0.031932    [1[6[8][1][1]]]                                             
  H           2.170245            -4.752331            -5.142988            0             0.031932    [1[6[8][1][1]]]                                             
  H           1.250145            -4.869591            -3.657311            0             0.031932    [1[6[8][1][1]]]                                             
  C          -2.724335            -7.779231            -3.663963            1             0.099454    [6[8[1]][1][1][1]]                                          
  O          -2.306535            -8.949450            -4.368580            1            -0.597823    [8[6[1][1][1]][1]]                                          
  H          -3.146143            -9.301360            -4.569485            1             0.402573    [1[8[6]]]                                                   
  H          -3.622942            -8.116595            -3.058919            1             0.031932    [1[6[8][1][1]]]                                             
  H          -2.015280            -7.343031            -2.985387            1             0.031932    [1[6[8][1][1]]]                                             
  H          -3.217830            -7.021954            -4.316722            1             0.031932    [1[6[8][1][1]]]                                             
