12

  C           10.131559           -0.929883            -3.069840            0             0.099454    [6[8[1]][1][1][1]]                                          
  O           8.749478            -0.835584            -3.413896            0            -0.597823    [8[6[1][1][1]][1]]                                          
  H           8.295501            -1.609561            -3.197512            0             0.402573    [1[8[6]]]                                                   
  H           10.881002           -1.133662            -3.916814            0             0.031932    [1[6[8][1][1]]]                                             
  H           10.518113           -0.027949            -2.527007            0             0.031932    [1[6[8][1][1]]]                                             
  H           10.152257           -1.698416            -2.209900            0             0.031932    [1[6[8][1][1]]]                                             
  C           3.094691            -3.899319            -2.253301            1             0.099454    [6[8[1]][1][1][1]]                                          
  O           4.012810            -2.855084            -2.489724            1            -0.597823    [8[6[1][1][1]][1]]                                          
  H           4.894132            -3.180706            -2.366375            1             0.402573    [1[8[6]]]                                                   
  H           3.274963            -4.743832            -2.885866            1             0.031932    [1[6[8][1][1]]]                                             
  H           3.157851            -4.307120            -1.295152            1             0.031932    [1[6[8][1][1]]]                                             
  H           2.029597            -3.619283            -2.348870            1             0.031932    [1[6[8][1][1]]]                                             
