6

  C           10.895842            3.859828             4.976887            0             0.089063    [6[8[1]][1][1][1]]                                          
  O           9.543575             3.413807             5.120331            0            -0.604789    [8[6[1][1][1]][1]]                                          
  H           9.259058             3.103046             4.233005            0             0.406250    [1[8[6]]]                                                   
  H           11.649375            3.017892             4.845191            0             0.036492    [1[6[8][1][1]]]                                             
  H           10.920710            4.614268             4.226234            0             0.036492    [1[6[8][1][1]]]                                             
  H           11.212051            4.419450             5.896009            0             0.036492    [1[6[8][1][1]]]                                             
