12

  C           3.918612            -5.045741             2.896027            0             0.099454    [6[8[1]][1][1][1]]                                          
  O           4.275113            -3.748419             2.773380            0            -0.597823    [8[6[1][1][1]][1]]                                          
  H           5.177996            -3.619790             2.820687            0             0.402573    [1[8[6]]]                                                   
  H           3.911424            -5.560728             1.980114            0             0.031932    [1[6[8][1][1]]]                                             
  H           4.669848            -5.508734             3.468600            0             0.031932    [1[6[8][1][1]]]                                             
  H           2.869578            -5.280809             3.312576            0             0.031932    [1[6[8][1][1]]]                                             
  C           3.517834            -8.747606             1.460186            1             0.099454    [6[8[1]][1][1][1]]                                          
  O           4.829382            -8.235508             1.418514            1            -0.597823    [8[6[1][1][1]][1]]                                          
  H           5.082431            -8.293517             0.508124            1             0.402573    [1[8[6]]]                                                   
  H           3.325254            -9.482731             0.759865            1             0.031932    [1[6[8][1][1]]]                                             
  H           3.268235            -9.300667             2.413864            1             0.031932    [1[6[8][1][1]]]                                             
  H           2.728976            -7.938269             1.480270            1             0.031932    [1[6[8][1][1]]]                                             
