12

  C          -0.818865            -8.262982             3.889639            0             0.099454    [6[8[1]][1][1][1]]                                          
  O          -0.804588            -7.200547             4.826738            0            -0.597823    [8[6[1][1][1]][1]]                                          
  H          -1.389967            -6.553482             4.480454            0             0.402573    [1[8[6]]]                                                   
  H          -0.558544            -9.264849             4.220882            0             0.031932    [1[6[8][1][1]]]                                             
  H          -1.754608            -8.437277             3.463253            0             0.031932    [1[6[8][1][1]]]                                             
  H          -0.071885            -7.988574             3.128661            0             0.031932    [1[6[8][1][1]]]                                             
  C           1.842494            -5.490414             4.222264            1             0.099454    [6[8[1]][1][1][1]]                                          
  O           0.779058            -4.891262             4.888618            1            -0.597823    [8[6[1][1][1]][1]]                                          
  H           0.293986            -5.565972             5.331256            1             0.402573    [1[8[6]]]                                                   
  H           2.573357            -4.701865             3.988026            1             0.031932    [1[6[8][1][1]]]                                             
  H           2.324572            -6.211238             4.978611            1             0.031932    [1[6[8][1][1]]]                                             
  H           1.640042            -6.048494             3.297003            1             0.031932    [1[6[8][1][1]]]                                             
