12

  C           6.555521             2.875121             5.302771            0             0.099454    [6[8[1]][1][1][1]]                                          
  O           5.960526             2.912413             6.541502            0            -0.597823    [8[6[1][1][1]][1]]                                          
  H           5.034107             2.707951             6.433674            0             0.402573    [1[8[6]]]                                                   
  H           6.880396             3.815636             4.981021            0             0.031932    [1[6[8][1][1]]]                                             
  H           7.546284             2.419773             5.320943            0             0.031932    [1[6[8][1][1]]]                                             
  H           5.929050             2.395693             4.578541            0             0.031932    [1[6[8][1][1]]]                                             
  C           5.944907            -1.410275             8.821131            1             0.099454    [6[8[1]][1][1][1]]                                          
  O           5.661752            -2.034981             10.047827           1            -0.597823    [8[6[1][1][1]][1]]                                          
  H           6.407531            -2.616065             10.283087           1             0.402573    [1[8[6]]]                                                   
  H           5.131365            -0.914269             8.387196            1             0.031932    [1[6[8][1][1]]]                                             
  H           6.795903            -0.706590             8.955805            1             0.031932    [1[6[8][1][1]]]                                             
  H           6.311007            -2.132486             8.079920            1             0.031932    [1[6[8][1][1]]]                                             
