12

  C          -1.670944            -9.559233             3.799074            0             0.099454    [6[8[1]][1][1][1]]                                          
  O          -0.481268            -9.603435             3.036567            0            -0.597823    [8[6[1][1][1]][1]]                                          
  H          -0.736108            -9.305396             2.153526            0             0.402573    [1[8[6]]]                                                   
  H          -2.402088            -10.358033            3.567388            0             0.031932    [1[6[8][1][1]]]                                             
  H          -1.449708            -9.797974             4.816966            0             0.031932    [1[6[8][1][1]]]                                             
  H          -2.153882            -8.556090             3.774826            0             0.031932    [1[6[8][1][1]]]                                             
  C          -5.836670            -10.911321            4.427515            1             0.099454    [6[8[1]][1][1][1]]                                          
  O          -4.845837            -10.467782            5.361570            1            -0.597823    [8[6[1][1][1]][1]]                                          
  H          -4.775316            -11.214859            5.959386            1             0.402573    [1[8[6]]]                                                   
  H          -5.871586            -10.517069            3.399717            1             0.031932    [1[6[8][1][1]]]                                             
  H          -5.695896            -11.994299            4.186843            1             0.031932    [1[6[8][1][1]]]                                             
  H          -6.824144            -10.822181            4.900740            1             0.031932    [1[6[8][1][1]]]                                             
