12

  C           5.769253             2.723060            -5.358341            0             0.099454    [6[8[1]][1][1][1]]                                          
  O           4.814784             3.262569            -6.303090            0            -0.597823    [8[6[1][1][1]][1]]                                          
  H           4.560570             4.189452            -6.048641            0             0.402573    [1[8[6]]]                                                   
  H           5.512399             1.716891            -5.023752            0             0.031932    [1[6[8][1][1]]]                                             
  H           6.764949             2.673232            -5.826764            0             0.031932    [1[6[8][1][1]]]                                             
  H           5.846086             3.305604            -4.359895            0             0.031932    [1[6[8][1][1]]]                                             
  C           4.368537             5.393558            -2.809895            1             0.099454    [6[8[1]][1][1][1]]                                          
  O           3.561577             5.915263            -3.882099            1            -0.597823    [8[6[1][1][1]][1]]                                          
  H           2.747769             6.147654            -3.483270            1             0.402573    [1[8[6]]]                                                   
  H           4.522148             6.098134            -2.062670            1             0.031932    [1[6[8][1][1]]]                                             
  H           3.985404             4.497609            -2.348490            1             0.031932    [1[6[8][1][1]]]                                             
  H           5.365098             5.152908            -3.121065            1             0.031932    [1[6[8][1][1]]]                                             
