12

  C          -7.165838             1.970965            -4.316710            0             0.099454    [6[8[1]][1][1][1]]                                          
  O          -8.140504             2.659230            -3.460284            0            -0.597823    [8[6[1][1][1]][1]]                                          
  H          -7.664392             2.899198            -2.666859            0             0.402573    [1[8[6]]]                                                   
  H          -6.972118             0.987659            -3.975152            0             0.031932    [1[6[8][1][1]]]                                             
  H          -7.564475             1.801484            -5.267749            0             0.031932    [1[6[8][1][1]]]                                             
  H          -6.156702             2.463355            -4.387189            0             0.031932    [1[6[8][1][1]]]                                             
  C          -5.626955             5.201464            -5.698041            1             0.099454    [6[8[1]][1][1][1]]                                          
  O          -6.120893             5.607190            -4.461843            1            -0.597823    [8[6[1][1][1]][1]]                                          
  H          -7.011624             5.750783            -4.706784            1             0.402573    [1[8[6]]]                                                   
  H          -5.858184             5.795319            -6.573045            1             0.031932    [1[6[8][1][1]]]                                             
  H          -4.516198             5.276372            -5.727805            1             0.031932    [1[6[8][1][1]]]                                             
  H          -5.579296             4.171457            -5.897865            1             0.031932    [1[6[8][1][1]]]                                             
