12

  C          -4.012360            -0.632223            -6.223825            0             0.099454    [6[8[1]][1][1][1]]                                          
  O          -2.965257            -0.703320            -7.190753            0            -0.597823    [8[6[1][1][1]][1]]                                          
  H          -2.852629             0.189757            -7.475184            0             0.402573    [1[8[6]]]                                                   
  H          -4.895015            -0.107006            -6.552738            0             0.031932    [1[6[8][1][1]]]                                             
  H          -4.281098            -1.627161            -5.907874            0             0.031932    [1[6[8][1][1]]]                                             
  H          -3.664603            -0.197199            -5.263075            0             0.031932    [1[6[8][1][1]]]                                             
  C          -1.383171             2.494834            -7.774081            1             0.099454    [6[8[1]][1][1][1]]                                          
  O          -2.695883             2.071175            -8.055564            1            -0.597823    [8[6[1][1][1]][1]]                                          
  H          -3.226363             2.757146            -8.538271            1             0.402573    [1[8[6]]]                                                   
  H          -1.414707             3.136260            -6.875296            1             0.031932    [1[6[8][1][1]]]                                             
  H          -0.763160             1.607166            -7.637701            1             0.031932    [1[6[8][1][1]]]                                             
  H          -0.942670             3.070044            -8.613933            1             0.031932    [1[6[8][1][1]]]                                             
