12

  C           10.131559           -0.929883            -3.069840            0             0.099454    [6[8[1]][1][1][1]]                                          
  O           8.749478            -0.835584            -3.413896            0            -0.597823    [8[6[1][1][1]][1]]                                          
  H           8.295501            -1.609561            -3.197512            0             0.402573    [1[8[6]]]                                                   
  H           10.881002           -1.133662            -3.916814            0             0.031932    [1[6[8][1][1]]]                                             
  H           10.518113           -0.027949            -2.527007            0             0.031932    [1[6[8][1][1]]]                                             
  H           10.152257           -1.698416            -2.209900            0             0.031932    [1[6[8][1][1]]]                                             
  C           10.075003           -5.369550            -1.701341            1             0.099454    [6[8[1]][1][1][1]]                                          
  O           10.966355           -5.894968            -0.762528            1            -0.597823    [8[6[1][1][1]][1]]                                          
  H           10.837473           -6.806595            -0.593211            1             0.402573    [1[8[6]]]                                                   
  H           8.989269            -5.571708            -1.521119            1             0.031932    [1[6[8][1][1]]]                                             
  H           10.054936           -4.273271            -1.759322            1             0.031932    [1[6[8][1][1]]]                                             
  H           10.144655           -5.691776            -2.762107            1             0.031932    [1[6[8][1][1]]]                                             
