12

  C           10.093888           -10.923622           -4.878112            0             0.099454    [6[8[1]][1][1][1]]                                          
  O           8.854168            -11.523886           -5.213173            0            -0.597823    [8[6[1][1][1]][1]]                                          
  H           8.103930            -11.097083           -4.746784            0             0.402573    [1[8[6]]]                                                   
  H           10.121338           -10.612979           -3.867320            0             0.031932    [1[6[8][1][1]]]                                             
  H           11.027255           -11.597783           -4.983063            0             0.031932    [1[6[8][1][1]]]                                             
  H           10.219092           -10.001707           -5.424086            0             0.031932    [1[6[8][1][1]]]                                             
  C           11.076517           -8.554531            -1.744906            1             0.099454    [6[8[1]][1][1][1]]                                          
  O           10.153964           -8.303741            -0.696655            1            -0.597823    [8[6[1][1][1]][1]]                                          
  H           9.337637            -8.741784            -1.011059            1             0.402573    [1[8[6]]]                                                   
  H           11.747606           -7.739471            -1.922216            1             0.031932    [1[6[8][1][1]]]                                             
  H           11.732640           -9.399940            -1.543926            1             0.031932    [1[6[8][1][1]]]                                             
  H           10.655528           -8.805024            -2.715409            1             0.031932    [1[6[8][1][1]]]                                             
