12

  C          -3.609709            -6.212238             11.084964           0             0.099454    [6[8[1]][1][1][1]]                                          
  O          -4.364734            -5.445713             10.082139           0            -0.597823    [8[6[1][1][1]][1]]                                          
  H          -4.900436            -4.779414             10.518448           0             0.402573    [1[8[6]]]                                                   
  H          -3.996064            -6.014864             12.063790           0             0.031932    [1[6[8][1][1]]]                                             
  H          -3.631724            -7.334633             10.985328           0             0.031932    [1[6[8][1][1]]]                                             
  H          -2.523652            -5.863047             11.239573           0             0.031932    [1[6[8][1][1]]]                                             
  C          -4.510023            -7.159950             6.680864            1             0.099454    [6[8[1]][1][1][1]]                                          
  O          -3.454325            -7.490819             5.818674            1            -0.597823    [8[6[1][1][1]][1]]                                          
  H          -3.879616            -7.916174             5.083613            1             0.402573    [1[8[6]]]                                                   
  H          -4.186711            -7.055084             7.760186            1             0.031932    [1[6[8][1][1]]]                                             
  H          -4.975949            -6.169228             6.432347            1             0.031932    [1[6[8][1][1]]]                                             
  H          -5.285820            -7.983903             6.634104            1             0.031932    [1[6[8][1][1]]]                                             
