12

  C           0.659082             8.615269            -3.643497            0             0.099454    [6[8[1]][1][1][1]]                                          
  O           0.571755             9.841283            -3.042450            0            -0.597823    [8[6[1][1][1]][1]]                                          
  H           0.633439             10.539445           -3.712564            0             0.402573    [1[8[6]]]                                                   
  H           1.490287             8.549697            -4.355124            0             0.031932    [1[6[8][1][1]]]                                             
  H           0.762765             7.880298            -2.852222            0             0.031932    [1[6[8][1][1]]]                                             
  H          -0.254403             8.351689            -4.285406            0             0.031932    [1[6[8][1][1]]]                                             
  C           0.829014             9.682152            -8.392368            1             0.099454    [6[8[1]][1][1][1]]                                          
  O           0.042463             9.828848            -7.232744            1            -0.597823    [8[6[1][1][1]][1]]                                          
  H          -0.519026             9.064280            -7.065889            1             0.402573    [1[8[6]]]                                                   
  H           0.225105             9.659612            -9.356101            1             0.031932    [1[6[8][1][1]]]                                             
  H           1.633908             10.448807           -8.471243            1             0.031932    [1[6[8][1][1]]]                                             
  H           1.253393             8.698865            -8.328509            1             0.031932    [1[6[8][1][1]]]                                             
