12

  C          -4.577922             7.549913            -6.259814            0             0.099454    [6[8[1]][1][1][1]]                                          
  O          -5.822441             8.040496            -5.765704            0            -0.597823    [8[6[1][1][1]][1]]                                          
  H          -6.112907             8.734380            -6.371668            0             0.402573    [1[8[6]]]                                                   
  H          -3.982501             6.991980            -5.461943            0             0.031932    [1[6[8][1][1]]]                                             
  H          -4.767267             6.902026            -7.134338            0             0.031932    [1[6[8][1][1]]]                                             
  H          -3.949636             8.337608            -6.698863            0             0.031932    [1[6[8][1][1]]]                                             
  C          -6.288479             10.601294           -8.344791            1             0.099454    [6[8[1]][1][1][1]]                                          
  O          -7.071195             9.587159            -7.758031            1            -0.597823    [8[6[1][1][1]][1]]                                          
  H          -7.987267             9.886105            -7.871034            1             0.402573    [1[8[6]]]                                                   
  H          -6.472828             11.539576           -7.794615            1             0.031932    [1[6[8][1][1]]]                                             
  H          -5.195671             10.418681           -8.199799            1             0.031932    [1[6[8][1][1]]]                                             
  H          -6.465789             10.708528           -9.434871            1             0.031932    [1[6[8][1][1]]]                                             
