12

  C           3.428928             8.666497             5.285069            0             0.099454    [6[8[1]][1][1][1]]                                          
  O           4.762131             8.230754             5.347500            0            -0.597823    [8[6[1][1][1]][1]]                                          
  H           4.851017             7.570642             4.577961            0             0.402573    [1[8[6]]]                                                   
  H           3.003292             8.738284             4.342669            0             0.031932    [1[6[8][1][1]]]                                             
  H           2.793504             7.932422             5.811546            0             0.031932    [1[6[8][1][1]]]                                             
  H           3.320919             9.639837             5.807513            0             0.031932    [1[6[8][1][1]]]                                             
  C           3.648857             4.630146             4.165527            1             0.099454    [6[8[1]][1][1][1]]                                          
  O           4.432178             5.505500             5.003253            1            -0.597823    [8[6[1][1][1]][1]]                                          
  H           5.250910             5.085369             5.237563            1             0.402573    [1[8[6]]]                                                   
  H           2.797323             5.084001             3.737775            1             0.031932    [1[6[8][1][1]]]                                             
  H           4.224799             4.180784             3.353114            1             0.031932    [1[6[8][1][1]]]                                             
  H           3.205254             3.862384             4.819148            1             0.031932    [1[6[8][1][1]]]                                             
