12

  C           3.421083             7.210072             4.473973            0             0.099454    [6[8[1]][1][1][1]]                                          
  O           4.589934             8.015579             4.515994            0            -0.597823    [8[6[1][1][1]][1]]                                          
  H           4.448920             8.817756             4.027650            0             0.402573    [1[8[6]]]                                                   
  H           2.520643             7.794429             4.744338            0             0.031932    [1[6[8][1][1]]]                                             
  H           3.176166             6.680159             3.580771            0             0.031932    [1[6[8][1][1]]]                                             
  H           3.413371             6.403529             5.216325            0             0.031932    [1[6[8][1][1]]]                                             
  C           6.941858             4.561202             3.819420            1             0.099454    [6[8[1]][1][1][1]]                                          
  O           6.036226             3.829826             4.629647            1            -0.597823    [8[6[1][1][1]][1]]                                          
  H           6.490337             3.212845             5.236488            1             0.402573    [1[8[6]]]                                                   
  H           7.585249             5.221053             4.391091            1             0.031932    [1[6[8][1][1]]]                                             
  H           7.546627             3.978698             3.156488            1             0.031932    [1[6[8][1][1]]]                                             
  H           6.367427             5.198605             3.139385            1             0.031932    [1[6[8][1][1]]]                                             
