12

  C          -8.068520             9.350120             1.189583            0             0.099454    [6[8[1]][1][1][1]]                                          
  O          -8.752625             10.376869            1.873308            0            -0.597823    [8[6[1][1][1]][1]]                                          
  H          -8.135761             11.181691            1.909176            0             0.402573    [1[8[6]]]                                                   
  H          -6.977706             9.408543             1.361703            0             0.031932    [1[6[8][1][1]]]                                             
  H          -8.315950             8.386054             1.585649            0             0.031932    [1[6[8][1][1]]]                                             
  H          -8.351789             9.399995             0.160666            0             0.031932    [1[6[8][1][1]]]                                             
  C          -10.925620            11.028684            5.607531            1             0.099454    [6[8[1]][1][1][1]]                                          
  O          -9.934726             10.286416            6.302170            1            -0.597823    [8[6[1][1][1]][1]]                                          
  H          -10.283144            9.986644             7.197027            1             0.402573    [1[8[6]]]                                                   
  H          -10.519624            11.692370            4.792547            1             0.031932    [1[6[8][1][1]]]                                             
  H          -11.713673            10.380244            5.160018            1             0.031932    [1[6[8][1][1]]]                                             
  H          -11.410883            11.691452            6.391193            1             0.031932    [1[6[8][1][1]]]                                             
