12

  C           1.360282            -4.777872            -0.154041            0             0.099454    [6[8[1]][1][1][1]]                                          
  O           0.112124            -4.454516             0.466890            0            -0.597823    [8[6[1][1][1]][1]]                                          
  H           0.255263            -3.645348             0.929075            0             0.402573    [1[8[6]]]                                                   
  H           1.579164            -4.006664            -0.829384            0             0.031932    [1[6[8][1][1]]]                                             
  H           2.089112            -4.804114             0.602860            0             0.031932    [1[6[8][1][1]]]                                             
  H           1.466500            -5.741228            -0.685839            0             0.031932    [1[6[8][1][1]]]                                             
  C          -2.821279            -4.018960             3.426932            1             0.099454    [6[8[1]][1][1][1]]                                          
  O          -1.694309            -4.510608             4.047991            1            -0.597823    [8[6[1][1][1]][1]]                                          
  H          -0.937718            -4.038095             3.738168            1             0.402573    [1[8[6]]]                                                   
  H          -2.660955            -4.031095             2.353406            1             0.031932    [1[6[8][1][1]]]                                             
  H          -3.755240            -4.648577             3.567780            1             0.031932    [1[6[8][1][1]]]                                             
  H          -3.052784            -2.989722             3.669558            1             0.031932    [1[6[8][1][1]]]                                             
