12

  C           9.120961            -6.849547            -2.911448            0             0.099454    [6[8[1]][1][1][1]]                                          
  O           8.104281            -5.987390            -3.377930            0            -0.597823    [8[6[1][1][1]][1]]                                          
  H           7.520534            -6.399815            -3.979803            0             0.402573    [1[8[6]]]                                                   
  H           9.537305            -6.457883            -1.999201            0             0.031932    [1[6[8][1][1]]]                                             
  H           8.666208            -7.838895            -2.838411            0             0.031932    [1[6[8][1][1]]]                                             
  H           9.986982            -7.033741            -3.580794            0             0.031932    [1[6[8][1][1]]]                                             
  C           7.744184            -10.654787           -3.444805            1             0.099454    [6[8[1]][1][1][1]]                                          
  O           6.586102            -10.333390           -4.132204            1            -0.597823    [8[6[1][1][1]][1]]                                          
  H           5.925763            -10.827691           -3.628894            1             0.402573    [1[8[6]]]                                                   
  H           8.707866            -10.479906           -3.960858            1             0.031932    [1[6[8][1][1]]]                                             
  H           7.903785            -9.976957            -2.584237            1             0.031932    [1[6[8][1][1]]]                                             
  H           7.646756            -11.684471           -3.155189            1             0.031932    [1[6[8][1][1]]]                                             
