12

  C           8.561412             8.547478             4.824897            0             0.099454    [6[8[1]][1][1][1]]                                          
  O           9.910336             8.738627             5.198127            0            -0.597823    [8[6[1][1][1]][1]]                                          
  H           10.345457            7.856624             5.169852            0             0.402573    [1[8[6]]]                                                   
  H           8.078113             7.916050             5.563454            0             0.031932    [1[6[8][1][1]]]                                             
  H           7.927140             9.450870             4.820817            0             0.031932    [1[6[8][1][1]]]                                             
  H           8.344884             8.088721             3.855047            0             0.031932    [1[6[8][1][1]]]                                             
  C           10.919950            5.229899             4.053784            1             0.099454    [6[8[1]][1][1][1]]                                          
  O           11.224414            5.982413             5.237065            1            -0.597823    [8[6[1][1][1]][1]]                                          
  H           11.046507            5.502677             6.047237            1             0.402573    [1[8[6]]]                                                   
  H           10.228900            4.416066             4.252768            1             0.031932    [1[6[8][1][1]]]                                             
  H           10.352604            5.947194             3.401604            1             0.031932    [1[6[8][1][1]]]                                             
  H           11.862323            4.890610             3.525476            1             0.031932    [1[6[8][1][1]]]                                             
