12

  C           8.801717             7.016015             9.246804            0             0.099454    [6[8[1]][1][1][1]]                                          
  O           7.755388             6.219266             8.845088            0            -0.597823    [8[6[1][1][1]][1]]                                          
  H           7.295070             5.892641             9.580147            0             0.402573    [1[8[6]]]                                                   
  H           9.336976             6.494440             10.057822           0             0.031932    [1[6[8][1][1]]]                                             
  H           9.570985             7.269247             8.465971            0             0.031932    [1[6[8][1][1]]]                                             
  H           8.421084             8.041279             9.507340            0             0.031932    [1[6[8][1][1]]]                                             
  C           5.691484             3.687589             9.924490            1             0.099454    [6[8[1]][1][1][1]]                                          
  O           6.258085             4.825600             10.501742           1            -0.597823    [8[6[1][1][1]][1]]                                          
  H           6.803785             4.441316             11.184949           1             0.402573    [1[8[6]]]                                                   
  H           4.910656             3.932939             9.158652            1             0.031932    [1[6[8][1][1]]]                                             
  H           6.429347             3.084495             9.375911            1             0.031932    [1[6[8][1][1]]]                                             
  H           5.196778             2.975778             10.677494           1             0.031932    [1[6[8][1][1]]]                                             
