12

  C           0.527698             1.859503             9.663229            0             0.099454    [6[8[1]][1][1][1]]                                          
  O           0.594535             0.604207             10.339565           0            -0.597823    [8[6[1][1][1]][1]]                                          
  H           1.417129             0.142972             9.950281            0             0.402573    [1[8[6]]]                                                   
  H           0.246686             1.908735             8.587147            0             0.031932    [1[6[8][1][1]]]                                             
  H          -0.322910             2.327679             10.124349           0             0.031932    [1[6[8][1][1]]]                                             
  H           1.373423             2.534069             9.816187            0             0.031932    [1[6[8][1][1]]]                                             
  C           3.964316             3.347006             8.560207            1             0.099454    [6[8[1]][1][1][1]]                                          
  O           2.798326             3.703831             7.869844            1            -0.597823    [8[6[1][1][1]][1]]                                          
  H           2.181258             4.153824             8.473695            1             0.402573    [1[8[6]]]                                                   
  H           4.313658             4.116674             9.230770            1             0.031932    [1[6[8][1][1]]]                                             
  H           3.796506             2.467997             9.113621            1             0.031932    [1[6[8][1][1]]]                                             
  H           4.797698             3.092619             7.910218            1             0.031932    [1[6[8][1][1]]]                                             
