12

  C           7.027536             3.700445             1.588677            0             0.099454    [6[8[1]][1][1][1]]                                          
  O           7.121738             4.093266             0.247516            0            -0.597823    [8[6[1][1][1]][1]]                                          
  H           7.366341             3.333908            -0.299382            0             0.402573    [1[8[6]]]                                                   
  H           8.023769             3.471064             2.076743            0             0.031932    [1[6[8][1][1]]]                                             
  H           6.544191             4.464693             2.197487            0             0.031932    [1[6[8][1][1]]]                                             
  H           6.420623             2.848499             1.708700            0             0.031932    [1[6[8][1][1]]]                                             
  C           10.142335            1.302247             1.921414            1             0.099454    [6[8[1]][1][1][1]]                                          
  O           9.078113             1.027545             1.000667            1            -0.597823    [8[6[1][1][1]][1]]                                          
  H           9.264941             1.643469             0.317087            1             0.402573    [1[8[6]]]                                                   
  H           10.236299            0.491485             2.608424            1             0.031932    [1[6[8][1][1]]]                                             
  H           11.089045            1.398064             1.413199            1             0.031932    [1[6[8][1][1]]]                                             
  H           9.884949             2.299644             2.479286            1             0.031932    [1[6[8][1][1]]]                                             
