12

  C          -5.723827            -4.420740            -6.893500            0             0.099454    [6[8[1]][1][1][1]]                                          
  O          -5.543455            -4.072141            -8.256521            0            -0.597823    [8[6[1][1][1]][1]]                                          
  H          -5.341087            -4.846862            -8.759427            0             0.402573    [1[8[6]]]                                                   
  H          -4.835925            -4.954805            -6.632402            0             0.031932    [1[6[8][1][1]]]                                             
  H          -5.821917            -3.488937            -6.411756            0             0.031932    [1[6[8][1][1]]]                                             
  H          -6.684576            -4.909651            -6.795096            0             0.031932    [1[6[8][1][1]]]                                             
  C          -1.046311            -5.840517            -7.392696            1             0.099454    [6[8[1]][1][1][1]]                                          
  O          -2.034853            -5.649059            -8.417081            1            -0.597823    [8[6[1][1][1]][1]]                                          
  H          -2.908656            -5.826258            -8.049725            1             0.402573    [1[8[6]]]                                                   
  H          -0.002871            -5.776610            -7.787120            1             0.031932    [1[6[8][1][1]]]                                             
  H          -1.114569            -5.024084            -6.616437            1             0.031932    [1[6[8][1][1]]]                                             
  H          -1.078801            -6.794849            -6.821808            1             0.031932    [1[6[8][1][1]]]                                             
