12

  C          -2.354992             4.220558            -11.114118           0             0.099454    [6[8[1]][1][1][1]]                                          
  O          -3.266662             5.290288            -11.142796           0            -0.597823    [8[6[1][1][1]][1]]                                          
  H          -4.137291             4.981376            -11.457363           0             0.402573    [1[8[6]]]                                                   
  H          -1.583191             4.453698            -10.358504           0             0.031932    [1[6[8][1][1]]]                                             
  H          -2.862234             3.277000            -10.825924           0             0.031932    [1[6[8][1][1]]]                                             
  H          -1.849931             4.156217            -12.122973           0             0.031932    [1[6[8][1][1]]]                                             
  C           1.963681             1.214040            -8.571409            1             0.099454    [6[8[1]][1][1][1]]                                          
  O           2.853673             2.110296            -7.897743            1            -0.597823    [8[6[1][1][1]][1]]                                          
  H           3.648874             1.584822            -7.774481            1             0.402573    [1[8[6]]]                                                   
  H           1.308460             0.707925            -7.854799            1             0.031932    [1[6[8][1][1]]]                                             
  H           1.256957             1.784214            -9.191286            1             0.031932    [1[6[8][1][1]]]                                             
  H           2.413840             0.402646            -9.151699            1             0.031932    [1[6[8][1][1]]]                                             
