12

  C           6.493591            -7.114689             5.665414            0             0.099454    [6[8[1]][1][1][1]]                                          
  O           7.749158            -7.200561             5.023627            0            -0.597823    [8[6[1][1][1]][1]]                                          
  H           8.417499            -7.256658             5.702624            0             0.402573    [1[8[6]]]                                                   
  H           6.411173            -7.828988             6.442911            0             0.031932    [1[6[8][1][1]]]                                             
  H           6.322881            -6.124128             6.161306            0             0.031932    [1[6[8][1][1]]]                                             
  H           5.695959            -7.314876             5.013645            0             0.031932    [1[6[8][1][1]]]                                             
  C           6.084113            -8.611953             1.806768            1             0.099454    [6[8[1]][1][1][1]]                                          
  O           7.327695            -8.626183             2.447015            1            -0.597823    [8[6[1][1][1]][1]]                                          
  H           7.478803            -8.353929             3.386143            1             0.402573    [1[8[6]]]                                                   
  H           5.727032            -7.640368             1.558098            1             0.031932    [1[6[8][1][1]]]                                             
  H           5.902592            -9.304816             1.042302            1             0.031932    [1[6[8][1][1]]]                                             
  H           5.355908            -8.998010             2.538191            1             0.031932    [1[6[8][1][1]]]                                             
