12

  C           3.963104            -1.894302            -6.831238            0             0.099454    [6[8[1]][1][1][1]]                                          
  O           4.841024            -1.628224            -5.724773            0            -0.597823    [8[6[1][1][1]][1]]                                          
  H           5.315042            -2.462843            -5.462940            0             0.402573    [1[8[6]]]                                                   
  H           3.675892            -0.939994            -7.360445            0             0.031932    [1[6[8][1][1]]]                                             
  H           4.399781            -2.566132            -7.606293            0             0.031932    [1[6[8][1][1]]]                                             
  H           3.045565            -2.437522            -6.505905            0             0.031932    [1[6[8][1][1]]]                                             
  C           5.800142             1.167734            -5.349560            1             0.099454    [6[8[1]][1][1][1]]                                          
  O           5.149286             0.644954            -4.224245            1            -0.597823    [8[6[1][1][1]][1]]                                          
  H           4.889621            -0.272798            -4.504109            1             0.402573    [1[8[6]]]                                                   
  H           5.999497             2.296061            -5.132088            1             0.031932    [1[6[8][1][1]]]                                             
  H           6.720259             0.635451            -5.634512            1             0.031932    [1[6[8][1][1]]]                                             
  H           5.156302             1.094712            -6.343768            1             0.031932    [1[6[8][1][1]]]                                             
