12

  C          -3.485730            -1.394707            -9.730617            0             0.099454    [6[8[1]][1][1][1]]                                          
  O          -2.209008            -1.200329            -10.263792           0            -0.597823    [8[6[1][1][1]][1]]                                          
  H          -1.614533            -1.875366            -9.926658            0             0.402573    [1[8[6]]]                                                   
  H          -4.240539            -0.844386            -10.235814           0             0.031932    [1[6[8][1][1]]]                                             
  H          -3.804167            -2.419185            -9.794614            0             0.031932    [1[6[8][1][1]]]                                             
  H          -3.535408            -1.094552            -8.687688            0             0.031932    [1[6[8][1][1]]]                                             
  C          -6.504516            -1.500290            -8.431497            1             0.099454    [6[8[1]][1][1][1]]                                          
  O          -6.338600            -0.425602            -9.371969            1            -0.597823    [8[6[1][1][1]][1]]                                          
  H          -7.225021            -0.135700            -9.610803            1             0.402573    [1[8[6]]]                                                   
  H          -7.421601            -1.334292            -7.898962            1             0.031932    [1[6[8][1][1]]]                                             
  H          -6.661592            -2.478114            -8.949301            1             0.031932    [1[6[8][1][1]]]                                             
  H          -5.704916            -1.581016            -7.692120            1             0.031932    [1[6[8][1][1]]]                                             
