12

  C           5.213601            -6.424230             1.445439            0             0.099454    [6[8[1]][1][1][1]]                                          
  O           5.630218            -5.208946             2.075847            0            -0.597823    [8[6[1][1][1]][1]]                                          
  H           5.563530            -4.576802             1.354313            0             0.402573    [1[8[6]]]                                                   
  H           5.329758            -7.331916             2.140380            0             0.031932    [1[6[8][1][1]]]                                             
  H           4.144093            -6.377885             1.182249            0             0.031932    [1[6[8][1][1]]]                                             
  H           5.866397            -6.714165             0.524728            0             0.031932    [1[6[8][1][1]]]                                             
  C           7.950656            -4.743017             4.764325            1             0.099454    [6[8[1]][1][1][1]]                                          
  O           9.242797            -5.280096             4.795065            1            -0.597823    [8[6[1][1][1]][1]]                                          
  H           9.468355            -5.769611             4.003566            1             0.402573    [1[8[6]]]                                                   
  H           7.277791            -5.513226             5.145170            1             0.031932    [1[6[8][1][1]]]                                             
  H           7.881833            -3.903074             5.393011            1             0.031932    [1[6[8][1][1]]]                                             
  H           7.745673            -4.536831             3.739062            1             0.031932    [1[6[8][1][1]]]                                             
