12

  C          -8.719428            -0.806688             2.256153            0             0.099454    [6[8[1]][1][1][1]]                                          
  O          -10.041191           -1.234781             2.494380            0            -0.597823    [8[6[1][1][1]][1]]                                          
  H          -10.144787           -1.521010             3.361301            0             0.402573    [1[8[6]]]                                                   
  H          -8.220031            -0.383521             3.209562            0             0.031932    [1[6[8][1][1]]]                                             
  H          -8.128405            -1.587988             1.732554            0             0.031932    [1[6[8][1][1]]]                                             
  H          -8.726105             0.059084             1.528395            0             0.031932    [1[6[8][1][1]]]                                             
  C          -10.389428           -5.668474             0.886552            1             0.099454    [6[8[1]][1][1][1]]                                          
  O          -9.427594            -5.129751            -0.008684            1            -0.597823    [8[6[1][1][1]][1]]                                          
  H          -8.619964            -5.665520             0.023088            1             0.402573    [1[8[6]]]                                                   
  H          -11.126881           -4.947132             1.176537            1             0.031932    [1[6[8][1][1]]]                                             
  H          -10.780607           -6.594603             0.450729            1             0.031932    [1[6[8][1][1]]]                                             
  H          -9.779254            -5.947587             1.825181            1             0.031932    [1[6[8][1][1]]]                                             
