12

  C          -6.076476             10.396994            8.572423            0             0.099454    [6[8[1]][1][1][1]]                                          
  O          -4.913337             11.136352            8.302519            0            -0.597823    [8[6[1][1][1]][1]]                                          
  H          -4.968444             12.080275            8.375493            0             0.402573    [1[8[6]]]                                                   
  H          -6.294389             9.678972             7.724420            0             0.031932    [1[6[8][1][1]]]                                             
  H          -6.081936             9.823034             9.605426            0             0.031932    [1[6[8][1][1]]]                                             
  H          -6.905947             11.125597            8.466702            0             0.031932    [1[6[8][1][1]]]                                             
  C          -4.351667             5.254473             6.920647            1             0.099454    [6[8[1]][1][1][1]]                                          
  O          -5.704513             5.376898             6.739659            1            -0.597823    [8[6[1][1][1]][1]]                                          
  H          -5.942629             5.492009             5.833962            1             0.402573    [1[8[6]]]                                                   
  H          -4.171133             4.701593             7.857598            1             0.031932    [1[6[8][1][1]]]                                             
  H          -3.847408             4.840025             6.094159            1             0.031932    [1[6[8][1][1]]]                                             
  H          -3.916681             6.286763             6.979087            1             0.031932    [1[6[8][1][1]]]                                             
