12

  C           3.035354            -3.809666            -2.544556            0             0.099454    [6[8[1]][1][1][1]]                                          
  O           1.766696            -4.109608            -3.176374            0            -0.597823    [8[6[1][1][1]][1]]                                          
  H           1.607045            -3.612000            -3.997328            0             0.402573    [1[8[6]]]                                                   
  H           3.106638            -4.114295            -1.499011            0             0.031932    [1[6[8][1][1]]]                                             
  H           3.808947            -4.262466            -3.092819            0             0.031932    [1[6[8][1][1]]]                                             
  H           3.163127            -2.658329            -2.601287            0             0.031932    [1[6[8][1][1]]]                                             
  C          -2.004281            -1.792086            -0.094840            1             0.099454    [6[8[1]][1][1][1]]                                          
  O          -1.622860            -1.390812            -1.373817            1            -0.597823    [8[6[1][1][1]][1]]                                          
  H          -1.735763            -2.098400            -2.056411            1             0.402573    [1[8[6]]]                                                   
  H          -2.906951            -2.470413             0.013711            1             0.031932    [1[6[8][1][1]]]                                             
  H          -1.205589            -2.376961             0.445969            1             0.031932    [1[6[8][1][1]]]                                             
  H          -2.270964            -1.025600             0.552701            1             0.031932    [1[6[8][1][1]]]                                             
