12

  C          -2.826672             3.168697             7.311766            0             0.099454    [6[8[1]][1][1][1]]                                          
  O          -2.985900             2.187477             8.339613            0            -0.597823    [8[6[1][1][1]][1]]                                          
  H          -2.080365             1.979500             8.637292            0             0.402573    [1[8[6]]]                                                   
  H          -2.631409             4.182728             7.755383            0             0.031932    [1[6[8][1][1]]]                                             
  H          -1.965593             2.904438             6.677685            0             0.031932    [1[6[8][1][1]]]                                             
  H          -3.653128             3.269334             6.564215            0             0.031932    [1[6[8][1][1]]]                                             
  C          -4.544771             2.609349             11.318298           1             0.099454    [6[8[1]][1][1][1]]                                          
  O          -4.433375             1.419953             10.516813           1            -0.597823    [8[6[1][1][1]][1]]                                          
  H          -4.211848             1.900054             9.696402            1             0.402573    [1[8[6]]]                                                   
  H          -3.688525             2.841665             11.984491           1             0.031932    [1[6[8][1][1]]]                                             
  H          -4.789409             3.448053             10.666055           1             0.031932    [1[6[8][1][1]]]                                             
  H          -5.379880             2.608398             12.042877           1             0.031932    [1[6[8][1][1]]]                                             
