12

  C          -6.030512             6.655904             1.816928            0             0.099454    [6[8[1]][1][1][1]]                                          
  O          -5.728468             6.776601             3.218112            0            -0.597823    [8[6[1][1][1]][1]]                                          
  H          -4.798940             6.874311             3.255842            0             0.402573    [1[8[6]]]                                                   
  H          -7.104650             6.813739             1.601745            0             0.031932    [1[6[8][1][1]]]                                             
  H          -5.444522             7.352368             1.185617            0             0.031932    [1[6[8][1][1]]]                                             
  H          -5.877691             5.637061             1.551672            0             0.031932    [1[6[8][1][1]]]                                             
  C          -2.561850             8.333009             5.793317            1             0.099454    [6[8[1]][1][1][1]]                                          
  O          -3.098374             7.684261             4.668960            1            -0.597823    [8[6[1][1][1]][1]]                                          
  H          -2.260752             7.229011             4.369283            1             0.402573    [1[8[6]]]                                                   
  H          -1.504505             8.534680             5.701477            1             0.031932    [1[6[8][1][1]]]                                             
  H          -3.050513             9.317847             5.958538            1             0.031932    [1[6[8][1][1]]]                                             
  H          -2.651462             7.682936             6.685952            1             0.031932    [1[6[8][1][1]]]                                             
