6

N  0.95367000           0.05011000           0.05172000         
C  2.30360000           0.04971000           0.05472000         
O  2.91612000          -0.08860000           1.10147000         
H  0.44083000           0.16712000          -0.83387000         
H  0.42720000          -0.06598000           0.93038000         
H  2.84878000           0.17263000          -0.87563000         
