12

  C          -0.339149            -4.423199            -5.326055            0             0.099454    [6[8[1]][1][1][1]]                                          
  O          -0.038769            -3.807960            -6.553983            0            -0.597823    [8[6[1][1][1]][1]]                                          
  H           0.856931            -4.029601            -6.766577            0             0.402573    [1[8[6]]]                                                   
  H          -1.183695            -3.938080            -4.910688            0             0.031932    [1[6[8][1][1]]]                                             
  H          -0.641640            -5.450036            -5.588658            0             0.031932    [1[6[8][1][1]]]                                             
  H           0.493558            -4.491203            -4.588605            0             0.031932    [1[6[8][1][1]]]                                             
  C           3.342125            -5.023051            -5.318537            1             0.099454    [6[8[1]][1][1][1]]                                          
  O           2.887319            -4.274273            -6.430763            1            -0.597823    [8[6[1][1][1]][1]]                                          
  H           3.572304            -4.139006            -7.111828            1             0.402573    [1[8[6]]]                                                   
  H           4.340022            -4.689167            -5.002145            1             0.031932    [1[6[8][1][1]]]                                             
  H           2.573758            -5.014004            -4.521684            1             0.031932    [1[6[8][1][1]]]                                             
  H           3.464078            -6.125490            -5.575400            1             0.031932    [1[6[8][1][1]]]                                             
