12

  C          -0.485163             3.922118             5.725866            0             0.099454    [6[8[1]][1][1][1]]                                          
  O           0.047863             2.990680             6.609788            0            -0.597823    [8[6[1][1][1]][1]]                                          
  H           0.912320             3.261742             6.846728            0             0.402573    [1[8[6]]]                                                   
  H          -1.565628             4.196665             5.887215            0             0.031932    [1[6[8][1][1]]]                                             
  H           0.170080             4.812169             5.724016            0             0.031932    [1[6[8][1][1]]]                                             
  H          -0.569948             3.523899             4.712004            0             0.031932    [1[6[8][1][1]]]                                             
  C           0.268052            -0.046767             5.581680            1             0.099454    [6[8[1]][1][1][1]]                                          
  O          -0.161142             0.920445             4.714740            1            -0.597823    [8[6[1][1][1]][1]]                                          
  H          -0.409012             1.609506             5.350271            1             0.402573    [1[8[6]]]                                                   
  H           0.077832             0.085115             6.615020            1             0.031932    [1[6[8][1][1]]]                                             
  H          -0.236730            -0.938475             5.403433            1             0.031932    [1[6[8][1][1]]]                                             
  H           1.366188            -0.264199             5.530111            1             0.031932    [1[6[8][1][1]]]                                             
