12

  C           4.251394             7.294140            -9.071538            0             0.099454    [6[8[1]][1][1][1]]                                          
  O           4.129112             8.085859            -7.910491            0            -0.597823    [8[6[1][1][1]][1]]                                          
  H           4.697433             7.799815            -7.200312            0             0.402573    [1[8[6]]]                                                   
  H           3.814201             6.341575            -8.870141            0             0.031932    [1[6[8][1][1]]]                                             
  H           3.722404             7.551431            -9.934583            0             0.031932    [1[6[8][1][1]]]                                             
  H           5.262686             7.043294            -9.364330            0             0.031932    [1[6[8][1][1]]]                                             
  C           6.137537             7.329484            -5.029090            1             0.099454    [6[8[1]][1][1][1]]                                          
  O           4.993816             8.083205            -4.789981            1            -0.597823    [8[6[1][1][1]][1]]                                          
  H           5.298773             8.977023            -4.746202            1             0.402573    [1[8[6]]]                                                   
  H           5.937156             6.232689            -4.958911            1             0.031932    [1[6[8][1][1]]]                                             
  H           6.633981             7.570980            -5.974501            1             0.031932    [1[6[8][1][1]]]                                             
  H           6.921082             7.612239            -4.311870            1             0.031932    [1[6[8][1][1]]]                                             
