12

  C          -10.731025            2.823541            -1.194444            0             0.099454    [6[8[1]][1][1][1]]                                          
  O          -10.503371            3.750135            -0.081358            0            -0.597823    [8[6[1][1][1]][1]]                                          
  H          -9.717192             3.611297             0.489731            0             0.402573    [1[8[6]]]                                                   
  H          -10.037854            3.038673            -2.059465            0             0.031932    [1[6[8][1][1]]]                                             
  H          -10.587128            1.762189            -0.946121            0             0.031932    [1[6[8][1][1]]]                                             
  H          -11.729911            2.863897            -1.670803            0             0.031932    [1[6[8][1][1]]]                                             
  C          -7.165838             1.970965            -4.316710            1             0.099454    [6[8[1]][1][1][1]]                                          
  O          -8.140504             2.659230            -3.460284            1            -0.597823    [8[6[1][1][1]][1]]                                          
  H          -7.664392             2.899198            -2.666859            1             0.402573    [1[8[6]]]                                                   
  H          -6.972118             0.987659            -3.975152            1             0.031932    [1[6[8][1][1]]]                                             
  H          -7.564475             1.801484            -5.267749            1             0.031932    [1[6[8][1][1]]]                                             
  H          -6.156702             2.463355            -4.387189            1             0.031932    [1[6[8][1][1]]]                                             
