12

  C           2.644582            -4.496149             4.921701            0             0.099454    [6[8[1]][1][1][1]]                                          
  O           1.571882            -5.465876             5.016327            0            -0.597823    [8[6[1][1][1]][1]]                                          
  H           0.734321            -5.043278             5.354497            0             0.402573    [1[8[6]]]                                                   
  H           3.257729            -4.554362             5.857195            0             0.031932    [1[6[8][1][1]]]                                             
  H           3.420873            -4.747145             4.172869            0             0.031932    [1[6[8][1][1]]]                                             
  H           2.283139            -3.498105             4.678804            0             0.031932    [1[6[8][1][1]]]                                             
  C           3.521563            -8.395177             6.505984            1             0.099454    [6[8[1]][1][1][1]]                                          
  O           2.803893            -7.956454             5.383226            1            -0.597823    [8[6[1][1][1]][1]]                                          
  H           2.484946            -7.127804             5.680847            1             0.402573    [1[8[6]]]                                                   
  H           2.867925            -8.568424             7.366260            1             0.031932    [1[6[8][1][1]]]                                             
  H           3.884699            -9.352271             6.189371            1             0.031932    [1[6[8][1][1]]]                                             
  H           4.433381            -7.748269             6.774794            1             0.031932    [1[6[8][1][1]]]                                             
