12

  C           1.492828             0.368408            -5.091656            0             0.099454    [6[8[1]][1][1][1]]                                          
  O           1.961456             0.876587            -3.881381            0            -0.597823    [8[6[1][1][1]][1]]                                          
  H           2.572465             0.270275            -3.456347            0             0.402573    [1[8[6]]]                                                   
  H           2.162575             0.620419            -5.884801            0             0.031932    [1[6[8][1][1]]]                                             
  H           1.356467            -0.711084            -4.939639            0             0.031932    [1[6[8][1][1]]]                                             
  H           0.515742             0.725289            -5.371675            0             0.031932    [1[6[8][1][1]]]                                             
  C           5.800142             1.167734            -5.349560            1             0.099454    [6[8[1]][1][1][1]]                                          
  O           5.149286             0.644954            -4.224245            1            -0.597823    [8[6[1][1][1]][1]]                                          
  H           4.889621            -0.272798            -4.504109            1             0.402573    [1[8[6]]]                                                   
  H           5.999497             2.296061            -5.132088            1             0.031932    [1[6[8][1][1]]]                                             
  H           6.720259             0.635451            -5.634512            1             0.031932    [1[6[8][1][1]]]                                             
  H           5.156302             1.094712            -6.343768            1             0.031932    [1[6[8][1][1]]]                                             
