12

  C           10.131559           -0.929883            -3.069840            0             0.099454    [6[8[1]][1][1][1]]                                          
  O           8.749478            -0.835584            -3.413896            0            -0.597823    [8[6[1][1][1]][1]]                                          
  H           8.295501            -1.609561            -3.197512            0             0.402573    [1[8[6]]]                                                   
  H           10.881002           -1.133662            -3.916814            0             0.031932    [1[6[8][1][1]]]                                             
  H           10.518113           -0.027949            -2.527007            0             0.031932    [1[6[8][1][1]]]                                             
  H           10.152257           -1.698416            -2.209900            0             0.031932    [1[6[8][1][1]]]                                             
  C           7.289697            -2.882623            -5.340441            1             0.099454    [6[8[1]][1][1][1]]                                          
  O           7.141422            -4.009326            -6.192982            1            -0.597823    [8[6[1][1][1]][1]]                                          
  H           7.377751            -4.729199            -5.616488            1             0.402573    [1[8[6]]]                                                   
  H           7.258130            -1.981662            -5.920827            1             0.031932    [1[6[8][1][1]]]                                             
  H           6.546377            -2.809169            -4.543690            1             0.031932    [1[6[8][1][1]]]                                             
  H           8.229608            -2.859571            -4.816235            1             0.031932    [1[6[8][1][1]]]                                             
