12

  C           9.593647             9.761217            -0.123887            0             0.099454    [6[8[1]][1][1][1]]                                          
  O           8.529113             9.505773            -1.008125            0            -0.597823    [8[6[1][1][1]][1]]                                          
  H           7.909642             8.855972            -0.683073            0             0.402573    [1[8[6]]]                                                   
  H           9.488921             9.329439             0.871033            0             0.031932    [1[6[8][1][1]]]                                             
  H           10.485594            9.475938            -0.574217            0             0.031932    [1[6[8][1][1]]]                                             
  H           9.706793             10.836368            0.068840            0             0.031932    [1[6[8][1][1]]]                                             
  C           8.624912             10.634205           -4.484992            1             0.099454    [6[8[1]][1][1][1]]                                          
  O           8.377446             9.432427            -3.867024            1            -0.597823    [8[6[1][1][1]][1]]                                          
  H           8.470871             9.577524            -2.909244            1             0.402573    [1[8[6]]]                                                   
  H           9.698390             10.845328           -4.516165            1             0.031932    [1[6[8][1][1]]]                                             
  H           8.160481             10.843815           -5.491393            1             0.031932    [1[6[8][1][1]]]                                             
  H           8.099689             11.472356           -3.885346            1             0.031932    [1[6[8][1][1]]]                                             
