12

  C          -1.479890            -2.782146            -10.347695           0             0.099454    [6[8[1]][1][1][1]]                                          
  O          -2.119262            -3.328411            -11.446586           0            -0.597823    [8[6[1][1][1]][1]]                                          
  H          -1.445049            -3.506653            -12.123038           0             0.402573    [1[8[6]]]                                                   
  H          -2.045989            -2.790401            -9.457301            0             0.031932    [1[6[8][1][1]]]                                             
  H          -0.487859            -3.274771            -10.077993           0             0.031932    [1[6[8][1][1]]]                                             
  H          -1.208709            -1.733125            -10.415487           0             0.031932    [1[6[8][1][1]]]                                             
  C          -0.476334            -6.443746            -10.023954           1             0.099454    [6[8[1]][1][1][1]]                                          
  O          -1.875961            -6.487827            -9.636245            1            -0.597823    [8[6[1][1][1]][1]]                                          
  H          -1.998111            -5.789325            -8.966662            1             0.402573    [1[8[6]]]                                                   
  H           0.182757            -6.617556            -9.120200            1             0.031932    [1[6[8][1][1]]]                                             
  H          -0.286599            -7.294597            -10.680926           1             0.031932    [1[6[8][1][1]]]                                             
  H          -0.244265            -5.575583            -10.590777           1             0.031932    [1[6[8][1][1]]]                                             
