12

  C           0.662464             5.760091            -2.092293            0             0.099454    [6[8[1]][1][1][1]]                                          
  O          -0.353807             5.728340            -1.234507            0            -0.597823    [8[6[1][1][1]][1]]                                          
  H          -1.200621             5.808599            -1.696995            0             0.402573    [1[8[6]]]                                                   
  H           1.466526             5.126160            -1.819299            0             0.031932    [1[6[8][1][1]]]                                             
  H           0.339278             5.312765            -3.046957            0             0.031932    [1[6[8][1][1]]]                                             
  H           1.071507             6.785773            -2.309820            0             0.031932    [1[6[8][1][1]]]                                             
  C           0.464581             3.135544             1.057392            1             0.099454    [6[8[1]][1][1][1]]                                          
  O          -0.033795             4.391398             1.287106            1            -0.597823    [8[6[1][1][1]][1]]                                          
  H          -0.049888             4.757126             0.377471            1             0.402573    [1[8[6]]]                                                   
  H           1.507871             3.076970             0.691846            1             0.031932    [1[6[8][1][1]]]                                             
  H           0.225967             2.508593             1.971604            1             0.031932    [1[6[8][1][1]]]                                             
  H          -0.090771             2.731226             0.174747            1             0.031932    [1[6[8][1][1]]]                                             
