12

  C          -3.092686            -1.451874             10.711364           0             0.099454    [6[8[1]][1][1][1]]                                          
  O          -2.273163            -2.540808             10.545648           0            -0.597823    [8[6[1][1][1]][1]]                                          
  H          -2.684214            -3.268882             11.063944           0             0.402573    [1[8[6]]]                                                   
  H          -4.148534            -1.721086             10.677316           0             0.031932    [1[6[8][1][1]]]                                             
  H          -2.829864            -0.967831             11.633750           0             0.031932    [1[6[8][1][1]]]                                             
  H          -2.944506            -0.806253             9.884226            0             0.031932    [1[6[8][1][1]]]                                             
  C           0.899759            -1.006463             9.567668            1             0.099454    [6[8[1]][1][1][1]]                                          
  O          -0.178940            -0.310917             10.196296           1            -0.597823    [8[6[1][1][1]][1]]                                          
  H          -0.835749            -0.950961             10.534176           1             0.402573    [1[8[6]]]                                                   
  H           1.456993            -0.281065             8.977095            1             0.031932    [1[6[8][1][1]]]                                             
  H           1.524682            -1.432313             10.410432           1             0.031932    [1[6[8][1][1]]]                                             
  H           0.579859            -1.831959             8.926108            1             0.031932    [1[6[8][1][1]]]                                             
