12

  C           6.024470            -8.231093             8.793468            0             0.099454    [6[8[1]][1][1][1]]                                          
  O           4.931331            -7.342656             8.887420            0            -0.597823    [8[6[1][1][1]][1]]                                          
  H           5.119239            -6.724231             9.558792            0             0.402573    [1[8[6]]]                                                   
  H           5.867052            -9.230234             9.302779            0             0.031932    [1[6[8][1][1]]]                                             
  H           6.175789            -8.578846             7.811216            0             0.031932    [1[6[8][1][1]]]                                             
  H           7.006053            -7.820709             9.129623            0             0.031932    [1[6[8][1][1]]]                                             
  C           2.312583            -9.597128             9.765892            1             0.099454    [6[8[1]][1][1][1]]                                          
  O           2.295911            -8.212829             9.421557            1            -0.597823    [8[6[1][1][1]][1]]                                          
  H           3.128611            -7.901689             9.017264            1             0.402573    [1[8[6]]]                                                   
  H           1.752548            -10.243067            9.003440            1             0.031932    [1[6[8][1][1]]]                                             
  H           3.296545            -9.958385             9.557251            1             0.031932    [1[6[8][1][1]]]                                             
  H           1.964115            -9.730017             10.797588           1             0.031932    [1[6[8][1][1]]]                                             
