12

  C          -3.318311            -0.619609            -4.975786            0             0.099454    [6[8[1]][1][1][1]]                                          
  O          -2.848868            -0.188945            -3.711665            0            -0.597823    [8[6[1][1][1]][1]]                                          
  H          -2.709265             0.711760            -3.772373            0             0.402573    [1[8[6]]]                                                   
  H          -2.662649            -0.195860            -5.703031            0             0.031932    [1[6[8][1][1]]]                                             
  H          -3.228268            -1.702189            -5.124246            0             0.031932    [1[6[8][1][1]]]                                             
  H          -4.392851            -0.308560            -5.145854            0             0.031932    [1[6[8][1][1]]]                                             
  C          -6.297031            -2.375378            -7.173564            1             0.099454    [6[8[1]][1][1][1]]                                          
  O          -5.719362            -3.446939            -6.432666            1            -0.597823    [8[6[1][1][1]][1]]                                          
  H          -6.293347            -3.425501            -5.665204            1             0.402573    [1[8[6]]]                                                   
  H          -7.351424            -2.204857            -6.945151            1             0.031932    [1[6[8][1][1]]]                                             
  H          -5.736544            -1.442572            -6.985344            1             0.031932    [1[6[8][1][1]]]                                             
  H          -6.311114            -2.446512            -8.275151            1             0.031932    [1[6[8][1][1]]]                                             
