12

  C          -6.423069             5.566092             9.013381            0             0.099454    [6[8[1]][1][1][1]]                                          
  O          -6.490406             6.939785             8.703720            0            -0.597823    [8[6[1][1][1]][1]]                                          
  H          -5.816488             7.100692             8.090013            0             0.402573    [1[8[6]]]                                                   
  H          -7.316964             5.205827             9.520099            0             0.031932    [1[6[8][1][1]]]                                             
  H          -6.371598             4.942767             8.107187            0             0.031932    [1[6[8][1][1]]]                                             
  H          -5.565183             5.306817             9.669080            0             0.031932    [1[6[8][1][1]]]                                             
  C          -10.978665            5.184213             9.207365            1             0.099454    [6[8[1]][1][1][1]]                                          
  O          -11.196214            5.077927             10.598535           1            -0.597823    [8[6[1][1][1]][1]]                                          
  H          -10.636052            5.753459             11.026018           1             0.402573    [1[8[6]]]                                                   
  H          -11.710312            5.886418             8.777567            1             0.031932    [1[6[8][1][1]]]                                             
  H          -10.003787            5.610546             9.041970            1             0.031932    [1[6[8][1][1]]]                                             
  H          -11.097149            4.263177             8.720246            1             0.031932    [1[6[8][1][1]]]                                             
