12

  C          -3.572831            -2.518480            -3.619282            0             0.099454    [6[8[1]][1][1][1]]                                          
  O          -2.201665            -2.609266            -3.374965            0            -0.597823    [8[6[1][1][1]][1]]                                          
  H          -1.933915            -3.521238            -3.503153            0             0.402573    [1[8[6]]]                                                   
  H          -4.055319            -3.201278            -2.917605            0             0.031932    [1[6[8][1][1]]]                                             
  H          -3.926328            -1.556956            -3.334496            0             0.031932    [1[6[8][1][1]]]                                             
  H          -3.891178            -2.573715            -4.624249            0             0.031932    [1[6[8][1][1]]]                                             
  C           1.972360            -3.242380            -2.291110            1             0.099454    [6[8[1]][1][1][1]]                                          
  O           0.886188            -3.726054            -3.031860            1            -0.597823    [8[6[1][1][1]][1]]                                          
  H           0.164085            -3.641322            -2.396645            1             0.402573    [1[8[6]]]                                                   
  H           1.793747            -2.285866            -1.788684            1             0.031932    [1[6[8][1][1]]]                                             
  H           2.331288            -3.957920            -1.507135            1             0.031932    [1[6[8][1][1]]]                                             
  H           2.874275            -3.131901            -2.845409            1             0.031932    [1[6[8][1][1]]]                                             
