12

  C           3.160590             5.904719             1.409526            0             0.099454    [6[8[1]][1][1][1]]                                          
  O           1.952229             6.513314             1.905539            0            -0.597823    [8[6[1][1][1]][1]]                                          
  H           2.203480             7.011722             2.707374            0             0.402573    [1[8[6]]]                                                   
  H           3.131705             5.037513             0.685736            0             0.031932    [1[6[8][1][1]]]                                             
  H           3.800379             6.728786             1.090960            0             0.031932    [1[6[8][1][1]]]                                             
  H           3.782874             5.542182             2.299754            0             0.031932    [1[6[8][1][1]]]                                             
  C           0.197106             5.643279            -2.810635            1             0.099454    [6[8[1]][1][1][1]]                                          
  O           0.990186             6.638446            -3.502178            1            -0.597823    [8[6[1][1][1]][1]]                                          
  H           0.467502             7.018824            -4.265643            1             0.402573    [1[8[6]]]                                                   
  H           0.725189             4.808074            -2.264387            1             0.031932    [1[6[8][1][1]]]                                             
  H          -0.343198             6.242626            -2.087123            1             0.031932    [1[6[8][1][1]]]                                             
  H          -0.659478             5.169632            -3.309473            1             0.031932    [1[6[8][1][1]]]                                             
