12

  C           3.729332             11.109176           -10.482602           0             0.099454    [6[8[1]][1][1][1]]                                          
  O           4.755832             10.660201           -11.309026           0            -0.597823    [8[6[1][1][1]][1]]                                          
  H           4.517446             9.772490            -11.680235           0             0.402573    [1[8[6]]]                                                   
  H           2.665925             11.084278           -10.849776           0             0.031932    [1[6[8][1][1]]]                                             
  H           3.787291             10.735170           -9.479246            0             0.031932    [1[6[8][1][1]]]                                             
  H           3.875799             12.195148           -10.205744           0             0.031932    [1[6[8][1][1]]]                                             
  C           5.865347             9.167918            -8.360008            1             0.099454    [6[8[1]][1][1][1]]                                          
  O           5.500343             8.493549            -7.201196            1            -0.597823    [8[6[1][1][1]][1]]                                          
  H           4.539778             8.361218            -7.270459            1             0.402573    [1[8[6]]]                                                   
  H           5.527229             10.237435           -8.308055            1             0.031932    [1[6[8][1][1]]]                                             
  H           6.944993             9.086587            -8.452698            1             0.031932    [1[6[8][1][1]]]                                             
  H           5.493211             8.733666            -9.272044            1             0.031932    [1[6[8][1][1]]]                                             
