12

  C          -3.440480             1.608124            -5.363870            0             0.099454    [6[8[1]][1][1][1]]                                          
  O          -4.023051             1.698251            -6.686188            0            -0.597823    [8[6[1][1][1]][1]]                                          
  H          -4.350094             0.892071            -7.073146            0             0.402573    [1[8[6]]]                                                   
  H          -4.299878             1.217766            -4.707092            0             0.031932    [1[6[8][1][1]]]                                             
  H          -2.598717             0.960056            -5.139841            0             0.031932    [1[6[8][1][1]]]                                             
  H          -3.210669             2.597576            -4.898620            0             0.031932    [1[6[8][1][1]]]                                             
  C          -5.627436             2.843415            -9.896232            1             0.099454    [6[8[1]][1][1][1]]                                          
  O          -4.473519             3.478313            -9.440908            1            -0.597823    [8[6[1][1][1]][1]]                                          
  H          -4.272801             3.089341            -8.579657            1             0.402573    [1[8[6]]]                                                   
  H          -6.004657             3.140295            -10.907771           1             0.031932    [1[6[8][1][1]]]                                             
  H          -5.486322             1.728012            -9.944384            1             0.031932    [1[6[8][1][1]]]                                             
  H          -6.470970             3.073968            -9.297097            1             0.031932    [1[6[8][1][1]]]                                             
