11

C -1.96756000          -0.42576000           0.03946000         
C -0.70270000           0.41068000          -0.13915000         
H -2.86204000           0.23068000          -0.00506000         
H -1.95413000          -0.94681000           1.02055000         
H -2.04586000          -1.18195000          -0.77056000         
C  0.54671000          -0.46610000          -0.09774000         
H  1.45156000           0.16147000          -0.24045000         
H  0.51218000          -1.22301000          -0.91012000         
H  0.62342000          -0.98815000           0.87991000         
I -0.59476000           1.89311000           1.40306000         
H -0.74790000           0.93055000          -1.12041000         
