12

  C           3.729332             11.109176           -10.482602           0             0.099454    [6[8[1]][1][1][1]]                                          
  O           4.755832             10.660201           -11.309026           0            -0.597823    [8[6[1][1][1]][1]]                                          
  H           4.517446             9.772490            -11.680235           0             0.402573    [1[8[6]]]                                                   
  H           2.665925             11.084278           -10.849776           0             0.031932    [1[6[8][1][1]]]                                             
  H           3.787291             10.735170           -9.479246            0             0.031932    [1[6[8][1][1]]]                                             
  H           3.875799             12.195148           -10.205744           0             0.031932    [1[6[8][1][1]]]                                             
  C           1.849405             10.403174           -6.975823            1             0.099454    [6[8[1]][1][1][1]]                                          
  O           2.478847             9.152996            -7.261366            1            -0.597823    [8[6[1][1][1]][1]]                                          
  H           1.801508             8.464641            -7.105804            1             0.402573    [1[8[6]]]                                                   
  H           1.309623             10.282888           -6.056580            1             0.031932    [1[6[8][1][1]]]                                             
  H           2.652118             11.175749           -6.874183            1             0.031932    [1[6[8][1][1]]]                                             
  H           1.064721             10.693394           -7.711019            1             0.031932    [1[6[8][1][1]]]                                             
