12

  C          -7.703937             4.864431             7.544231            0             0.099454    [6[8[1]][1][1][1]]                                          
  O          -8.044865             6.226566             7.754114            0            -0.597823    [8[6[1][1][1]][1]]                                          
  H          -8.552644             6.657544             7.051836            0             0.402573    [1[8[6]]]                                                   
  H          -8.567473             4.275343             7.272627            0             0.031932    [1[6[8][1][1]]]                                             
  H          -6.941389             4.675493             6.753926            0             0.031932    [1[6[8][1][1]]]                                             
  H          -7.290078             4.411499             8.488377            0             0.031932    [1[6[8][1][1]]]                                             
  C          -7.231096             0.734802             6.355933            1             0.099454    [6[8[1]][1][1][1]]                                          
  O          -7.747945            -0.137764             5.435867            1            -0.597823    [8[6[1][1][1]][1]]                                          
  H          -7.369196            -1.030215             5.518210            1             0.402573    [1[8[6]]]                                                   
  H          -6.828257             0.153118             7.179129            1             0.031932    [1[6[8][1][1]]]                                             
  H          -6.361936             1.306457             6.030149            1             0.031932    [1[6[8][1][1]]]                                             
  H          -7.932546             1.299147             6.803414            1             0.031932    [1[6[8][1][1]]]                                             
