12

  C           0.141561             6.247437             4.342902            0             0.099454    [6[8[1]][1][1][1]]                                          
  O          -0.671210             6.055133             5.470995            0            -0.597823    [8[6[1][1][1]][1]]                                          
  H          -0.143852             5.652897             6.120910            0             0.402573    [1[8[6]]]                                                   
  H           0.997028             6.871239             4.544806            0             0.031932    [1[6[8][1][1]]]                                             
  H           0.411989             5.326716             3.898990            0             0.031932    [1[6[8][1][1]]]                                             
  H          -0.387381             6.739469             3.540981            0             0.031932    [1[6[8][1][1]]]                                             
  C           4.116040             3.646797             5.150770            1             0.099454    [6[8[1]][1][1][1]]                                          
  O           5.314399             3.405780             4.517782            1            -0.597823    [8[6[1][1][1]][1]]                                          
  H           5.522391             4.067591             3.865315            1             0.402573    [1[8[6]]]                                                   
  H           4.059715             4.503963             5.810762            1             0.031932    [1[6[8][1][1]]]                                             
  H           3.306977             3.937152             4.436309            1             0.031932    [1[6[8][1][1]]]                                             
  H           3.812589             2.736741             5.676938            1             0.031932    [1[6[8][1][1]]]                                             
