12

  C           3.021370             9.219144            -8.876034            0             0.099454    [6[8[1]][1][1][1]]                                          
  O           2.988232             10.333611           -8.053201            0            -0.597823    [8[6[1][1][1]][1]]                                          
  H           3.566255             11.030090           -8.396873            0             0.402573    [1[8[6]]]                                                   
  H           2.927108             8.298902            -8.306554            0             0.031932    [1[6[8][1][1]]]                                             
  H           2.081663             9.364225            -9.548580            0             0.031932    [1[6[8][1][1]]]                                             
  H           3.885532             9.146176            -9.495416            0             0.031932    [1[6[8][1][1]]]                                             
  C           0.571452             5.757147            -9.310984            1             0.099454    [6[8[1]][1][1][1]]                                          
  O           0.521628             4.402486            -9.201155            1            -0.597823    [8[6[1][1][1]][1]]                                          
  H           0.086074             4.339337            -8.344764            1             0.402573    [1[8[6]]]                                                   
  H           0.854972             6.019808            -10.346947           1             0.031932    [1[6[8][1][1]]]                                             
  H          -0.502939             6.082742            -9.134544            1             0.031932    [1[6[8][1][1]]]                                             
  H           1.119985             6.190823            -8.585950            1             0.031932    [1[6[8][1][1]]]                                             
