12

  C          -4.029221             8.344015             5.610913            0             0.099454    [6[8[1]][1][1][1]]                                          
  O          -2.999871             7.977746             4.667712            0            -0.597823    [8[6[1][1][1]][1]]                                          
  H          -3.310125             8.320182             3.789893            0             0.402573    [1[8[6]]]                                                   
  H          -3.622109             8.473960             6.626864            0             0.031932    [1[6[8][1][1]]]                                             
  H          -4.597087             9.250479             5.314208            0             0.031932    [1[6[8][1][1]]]                                             
  H          -4.851451             7.575020             5.727861            0             0.031932    [1[6[8][1][1]]]                                             
  C          -4.753666             2.997404             7.359859            1             0.099454    [6[8[1]][1][1][1]]                                          
  O          -4.275709             4.107133             6.683067            1            -0.597823    [8[6[1][1][1]][1]]                                          
  H          -3.688542             3.841056             6.004916            1             0.402573    [1[8[6]]]                                                   
  H          -3.868321             2.308237             7.551418            1             0.031932    [1[6[8][1][1]]]                                             
  H          -4.909387             3.226133             8.429224            1             0.031932    [1[6[8][1][1]]]                                             
  H          -5.680894             2.545239             6.906451            1             0.031932    [1[6[8][1][1]]]                                             
