6
Coordinates from ORCA-job 8_geo_opt
  C   3.01146988384758     -1.18070241454021      0.59838308276644
  O   4.39480586900848     -1.12778293836879      0.87412850377974
  H   4.77209715823561     -0.37921195929627      0.41262805834875
  H   2.80656231736422     -1.31874278345777     -0.46945911459962
  H   2.61163431796664     -2.04002280810065      1.13572803565535
  H   2.48490345357747     -0.28428709623631      0.94551343404934
