12

  C          -7.546642             5.310844            -2.485952            0             0.099454    [6[8[1]][1][1][1]]                                          
  O          -6.537382             4.702897            -1.704250            0            -0.597823    [8[6[1][1][1]][1]]                                          
  H          -6.634103             3.799627            -2.072274            0             0.402573    [1[8[6]]]                                                   
  H          -7.343214             5.297082            -3.570693            0             0.031932    [1[6[8][1][1]]]                                             
  H          -8.497672             4.889586            -2.433377            0             0.031932    [1[6[8][1][1]]]                                             
  H          -7.670592             6.410111            -2.234567            0             0.031932    [1[6[8][1][1]]]                                             
  C          -6.296176             3.776495            -4.725563            1             0.099454    [6[8[1]][1][1][1]]                                          
  O          -5.685976             3.634716            -3.483569            1            -0.597823    [8[6[1][1][1]][1]]                                          
  H          -5.576019             4.521717            -3.251364            1             0.402573    [1[8[6]]]                                                   
  H          -5.678511             4.378508            -5.439903            1             0.031932    [1[6[8][1][1]]]                                             
  H          -6.424762             2.782603            -5.191134            1             0.031932    [1[6[8][1][1]]]                                             
  H          -7.243550             4.274723            -4.592986            1             0.031932    [1[6[8][1][1]]]                                             
