12

  C          -5.619514            -0.230082             9.710258            0             0.099454    [6[8[1]][1][1][1]]                                          
  O          -5.919557             0.391140             10.949691           0            -0.597823    [8[6[1][1][1]][1]]                                          
  H          -5.148180             1.017697             11.036180           0             0.402573    [1[8[6]]]                                                   
  H          -6.402927            -0.922974             9.360529            0             0.031932    [1[6[8][1][1]]]                                             
  H          -5.635728             0.617874             8.986753            0             0.031932    [1[6[8][1][1]]]                                             
  H          -4.641547            -0.829193             9.755749            0             0.031932    [1[6[8][1][1]]]                                             
  C          -4.753666             2.997404             7.359859            1             0.099454    [6[8[1]][1][1][1]]                                          
  O          -4.275709             4.107133             6.683067            1            -0.597823    [8[6[1][1][1]][1]]                                          
  H          -3.688542             3.841056             6.004916            1             0.402573    [1[8[6]]]                                                   
  H          -3.868321             2.308237             7.551418            1             0.031932    [1[6[8][1][1]]]                                             
  H          -4.909387             3.226133             8.429224            1             0.031932    [1[6[8][1][1]]]                                             
  H          -5.680894             2.545239             6.906451            1             0.031932    [1[6[8][1][1]]]                                             
