6
Coordinates from ORCA-job 6_geo_opt
  C   3.01130563426177     -1.18084188788628      0.59855582350882
  O   4.39464949744162     -1.12794637633202      0.87431166458493
  H   4.77213907229502     -0.37890396875523      0.41251834006120
  H   2.80639438375799     -1.31889905300070     -0.46928615593645
  H   2.61148442412996     -2.04017486315939      1.13590065575830
  H   2.48483498811365     -0.28459585086639      0.94562567202319
