12

  C           8.147362             3.621650            -3.749684            0             0.099454    [6[8[1]][1][1][1]]                                          
  O           8.053980             4.057583            -2.454928            0            -0.597823    [8[6[1][1][1]][1]]                                          
  H           7.472880             3.409524            -2.063040            0             0.402573    [1[8[6]]]                                                   
  H           7.820027             2.626620            -3.885421            0             0.031932    [1[6[8][1][1]]]                                             
  H           7.487367             4.180078            -4.434288            0             0.031932    [1[6[8][1][1]]]                                             
  H           9.216773             3.642630            -4.117676            0             0.031932    [1[6[8][1][1]]]                                             
  C           6.349488             1.958305            -0.293641            1             0.099454    [6[8[1]][1][1][1]]                                          
  O           6.402245             1.534939            -1.668295            1            -0.597823    [8[6[1][1][1]][1]]                                          
  H           5.500103             1.659178            -2.082639            1             0.402573    [1[8[6]]]                                                   
  H           7.230434             2.498772            -0.038362            1             0.031932    [1[6[8][1][1]]]                                             
  H           5.513317             2.605014            -0.130240            1             0.031932    [1[6[8][1][1]]]                                             
  H           6.275680             1.143591             0.346185            1             0.031932    [1[6[8][1][1]]]                                             
