12

  C          -8.410225            -0.821002            -8.789456            0             0.099454    [6[8[1]][1][1][1]]                                          
  O          -8.113368            -0.162009            -9.990376            0            -0.597823    [8[6[1][1][1]][1]]                                          
  H          -7.278055             0.309001            -9.897010            0             0.402573    [1[8[6]]]                                                   
  H          -8.741089            -0.008371            -8.039512            0             0.031932    [1[6[8][1][1]]]                                             
  H          -9.202039            -1.532107            -8.940040            0             0.031932    [1[6[8][1][1]]]                                             
  H          -7.582550            -1.437232            -8.412476            0             0.031932    [1[6[8][1][1]]]                                             
  C          -6.294605             2.821503            -8.977898            1             0.099454    [6[8[1]][1][1][1]]                                          
  O          -5.834460             1.708429            -9.706962            1            -0.597823    [8[6[1][1][1]][1]]                                          
  H          -5.010333             1.957635            -10.059421           1             0.402573    [1[8[6]]]                                                   
  H          -5.538537             3.307708            -8.424907            1             0.031932    [1[6[8][1][1]]]                                             
  H          -6.734016             3.464602            -9.747660            1             0.031932    [1[6[8][1][1]]]                                             
  H          -7.150537             2.554967            -8.323217            1             0.031932    [1[6[8][1][1]]]                                             
