12

  C           11.474556            2.102910            -9.297509            0             0.099454    [6[8[1]][1][1][1]]                                          
  O           10.307835            2.200152            -8.489772            0            -0.597823    [8[6[1][1][1]][1]]                                          
  H           9.766941             1.402733            -8.572671            0             0.402573    [1[8[6]]]                                                   
  H           11.357470            1.455794            -10.216754           0             0.031932    [1[6[8][1][1]]]                                             
  H           11.682326            3.060955            -9.649247            0             0.031932    [1[6[8][1][1]]]                                             
  H           12.259209            1.769761            -8.610688            0             0.031932    [1[6[8][1][1]]]                                             
  C           9.228296            -0.241838            -6.258084            1             0.099454    [6[8[1]][1][1][1]]                                          
  O           10.018616           -0.647798            -7.345073            1            -0.597823    [8[6[1][1][1]][1]]                                          
  H           9.408194            -0.781000            -8.081191            1             0.402573    [1[8[6]]]                                                   
  H           9.509850            -0.656845            -5.285636            1             0.031932    [1[6[8][1][1]]]                                             
  H           9.049536             0.800049            -6.202469            1             0.031932    [1[6[8][1][1]]]                                             
  H           8.299088            -0.647132            -6.534378            1             0.031932    [1[6[8][1][1]]]                                             
