12

  C          -4.029221             8.344015             5.610913            0             0.099454    [6[8[1]][1][1][1]]                                          
  O          -2.999871             7.977746             4.667712            0            -0.597823    [8[6[1][1][1]][1]]                                          
  H          -3.310125             8.320182             3.789893            0             0.402573    [1[8[6]]]                                                   
  H          -3.622109             8.473960             6.626864            0             0.031932    [1[6[8][1][1]]]                                             
  H          -4.597087             9.250479             5.314208            0             0.031932    [1[6[8][1][1]]]                                             
  H          -4.851451             7.575020             5.727861            0             0.031932    [1[6[8][1][1]]]                                             
  C          -0.951433             5.290424             5.804685            1             0.099454    [6[8[1]][1][1][1]]                                          
  O          -2.165011             5.068943             5.047114            1            -0.597823    [8[6[1][1][1]][1]]                                          
  H          -2.451916             5.919018             4.731868            1             0.402573    [1[8[6]]]                                                   
  H          -1.152294             6.019029             6.526219            1             0.031932    [1[6[8][1][1]]]                                             
  H          -0.582023             4.346872             6.325513            1             0.031932    [1[6[8][1][1]]]                                             
  H          -0.158983             5.659910             5.179873            1             0.031932    [1[6[8][1][1]]]                                             
