12

  C           8.250343             5.705359            -1.178994            0             0.099454    [6[8[1]][1][1][1]]                                          
  O           7.781973             4.399579            -0.935683            0            -0.597823    [8[6[1][1][1]][1]]                                          
  H           6.990076             4.528335            -0.441139            0             0.402573    [1[8[6]]]                                                   
  H           7.784217             6.542154            -0.621818            0             0.031932    [1[6[8][1][1]]]                                             
  H           9.292746             5.743374            -0.911809            0             0.031932    [1[6[8][1][1]]]                                             
  H           8.314528             5.887828            -2.257205            0             0.031932    [1[6[8][1][1]]]                                             
  C           8.088401             1.207706             0.125048            1             0.099454    [6[8[1]][1][1][1]]                                          
  O           6.880566             0.723944             0.725348            1            -0.597823    [8[6[1][1][1]][1]]                                          
  H           6.327736             0.306026             0.042389            1             0.402573    [1[8[6]]]                                                   
  H           7.969318             1.287649            -1.015837            1             0.031932    [1[6[8][1][1]]]                                             
  H           8.502525             2.181685             0.544458            1             0.031932    [1[6[8][1][1]]]                                             
  H           8.970427             0.581518             0.385500            1             0.031932    [1[6[8][1][1]]]                                             
