12

  C           4.024355            -6.801977            -8.916837            0             0.099454    [6[8[1]][1][1][1]]                                          
  O           2.663368            -6.801153            -9.057764            0            -0.597823    [8[6[1][1][1]][1]]                                          
  H           2.302271            -5.971964            -8.723730            0             0.402573    [1[8[6]]]                                                   
  H           4.469199            -5.890253            -9.387422            0             0.031932    [1[6[8][1][1]]]                                             
  H           4.195968            -6.701892            -7.838637            0             0.031932    [1[6[8][1][1]]]                                             
  H           4.536072            -7.759296            -9.102608            0             0.031932    [1[6[8][1][1]]]                                             
  C           1.234261            -9.242018            -7.495827            1             0.099454    [6[8[1]][1][1][1]]                                          
  O          -0.152943            -9.365824            -7.903059            1            -0.597823    [8[6[1][1][1]][1]]                                          
  H          -0.178561            -10.163182           -8.461206            1             0.402573    [1[8[6]]]                                                   
  H           1.957693            -8.993515            -8.252238            1             0.031932    [1[6[8][1][1]]]                                             
  H           1.411291            -8.555166            -6.692722            1             0.031932    [1[6[8][1][1]]]                                             
  H           1.445783            -10.252646           -7.104688            1             0.031932    [1[6[8][1][1]]]                                             
