12

  C           6.381632            -1.870875             3.659416            0             0.099454    [6[8[1]][1][1][1]]                                          
  O           6.865294            -2.428046             2.462627            0            -0.597823    [8[6[1][1][1]][1]]                                          
  H           7.177478            -3.339419             2.607261            0             0.402573    [1[8[6]]]                                                   
  H           5.847585            -2.577557             4.305369            0             0.031932    [1[6[8][1][1]]]                                             
  H           7.275320            -1.535234             4.225810            0             0.031932    [1[6[8][1][1]]]                                             
  H           5.685898            -1.053315             3.452593            0             0.031932    [1[6[8][1][1]]]                                             
  C           9.360468            -4.523656             4.335038            1             0.099454    [6[8[1]][1][1][1]]                                          
  O           8.326896            -5.370352             3.903964            1            -0.597823    [8[6[1][1][1]][1]]                                          
  H           7.725141            -5.409423             4.658001            1             0.402573    [1[8[6]]]                                                   
  H           8.951792            -3.626088             4.768817            1             0.031932    [1[6[8][1][1]]]                                             
  H           9.861924            -4.986321             5.201307            1             0.031932    [1[6[8][1][1]]]                                             
  H           10.075039           -4.268118             3.603111            1             0.031932    [1[6[8][1][1]]]                                             
