12

  C           6.954746             7.491548             2.890849            0             0.099454    [6[8[1]][1][1][1]]                                          
  O           6.315243             6.971353             1.717059            0            -0.597823    [8[6[1][1][1]][1]]                                          
  H           5.920077             7.735909             1.324826            0             0.402573    [1[8[6]]]                                                   
  H           7.605254             6.722106             3.359889            0             0.031932    [1[6[8][1][1]]]                                             
  H           7.647488             8.305513             2.508878            0             0.031932    [1[6[8][1][1]]]                                             
  H           6.250953             7.862724             3.602146            0             0.031932    [1[6[8][1][1]]]                                             
  C           3.208912             8.523574             1.890041            1             0.099454    [6[8[1]][1][1][1]]                                          
  O           4.022419             9.685875             2.003729            1            -0.597823    [8[6[1][1][1]][1]]                                          
  H           4.329274             9.884666             1.116175            1             0.402573    [1[8[6]]]                                                   
  H           3.838737             7.602119             1.554761            1             0.031932    [1[6[8][1][1]]]                                             
  H           2.728100             8.354032             2.919526            1             0.031932    [1[6[8][1][1]]]                                             
  H           2.387934             8.697139             1.159460            1             0.031932    [1[6[8][1][1]]]                                             
