12

  C          -8.023118             5.970073            -7.301579            0             0.099454    [6[8[1]][1][1][1]]                                          
  O          -7.208899             5.748031            -6.199433            0            -0.597823    [8[6[1][1][1]][1]]                                          
  H          -7.582233             5.100643            -5.540227            0             0.402573    [1[8[6]]]                                                   
  H          -8.491772             6.984259            -7.204203            0             0.031932    [1[6[8][1][1]]]                                             
  H          -7.494694             5.832346            -8.256467            0             0.031932    [1[6[8][1][1]]]                                             
  H          -8.841849             5.215604            -7.301558            0             0.031932    [1[6[8][1][1]]]                                             
  C          -11.198574            2.196297            -8.663899            1             0.099454    [6[8[1]][1][1][1]]                                          
  O          -9.934511             2.627828            -9.106042            1            -0.597823    [8[6[1][1][1]][1]]                                          
  H          -9.437128             2.008321            -9.679980            1             0.402573    [1[8[6]]]                                                   
  H          -11.242939            1.426187            -7.873173            1             0.031932    [1[6[8][1][1]]]                                             
  H          -11.747869            3.026897            -8.234249            1             0.031932    [1[6[8][1][1]]]                                             
  H          -11.859639            1.793048            -9.379719            1             0.031932    [1[6[8][1][1]]]                                             
