12

  C           5.651281            -6.607152            -7.131808            0             0.099454    [6[8[1]][1][1][1]]                                          
  O           4.421029            -6.172387            -6.635053            0            -0.597823    [8[6[1][1][1]][1]]                                          
  H           3.846128            -6.941923            -6.443546            0             0.402573    [1[8[6]]]                                                   
  H           6.331579            -5.736460            -7.229165            0             0.031932    [1[6[8][1][1]]]                                             
  H           6.041744            -7.382705            -6.519006            0             0.031932    [1[6[8][1][1]]]                                             
  H           5.543523            -7.079936            -8.062609            0             0.031932    [1[6[8][1][1]]]                                             
  C           2.188186            -9.000318            -4.165154            1             0.099454    [6[8[1]][1][1][1]]                                          
  O           1.145914            -9.692273            -4.773061            1            -0.597823    [8[6[1][1][1]][1]]                                          
  H           0.926932            -9.237407            -5.568259            1             0.402573    [1[8[6]]]                                                   
  H           1.780757            -7.966807            -4.038153            1             0.031932    [1[6[8][1][1]]]                                             
  H           2.504193            -9.540271            -3.265993            1             0.031932    [1[6[8][1][1]]]                                             
  H           3.121350            -8.856803            -4.773930            1             0.031932    [1[6[8][1][1]]]                                             
