12

  C          -7.106117            -0.711953            -4.295349            0             0.099454    [6[8[1]][1][1][1]]                                          
  O          -7.987258            -0.969623            -5.345620            0            -0.597823    [8[6[1][1][1]][1]]                                          
  H          -8.785335            -0.606331            -5.012032            0             0.402573    [1[8[6]]]                                                   
  H          -6.036073            -1.036936            -4.411769            0             0.031932    [1[6[8][1][1]]]                                             
  H          -7.037151             0.351110            -4.185939            0             0.031932    [1[6[8][1][1]]]                                             
  H          -7.469075            -1.155235            -3.374603            0             0.031932    [1[6[8][1][1]]]                                             
  C          -7.374341            -3.510027            -7.790926            1             0.099454    [6[8[1]][1][1][1]]                                          
  O          -7.082794            -3.160391            -6.496887            1            -0.597823    [8[6[1][1][1]][1]]                                          
  H          -7.014447            -2.195298            -6.513542            1             0.402573    [1[8[6]]]                                                   
  H          -6.792086            -2.873235            -8.448449            1             0.031932    [1[6[8][1][1]]]                                             
  H          -7.207540            -4.645789            -8.009260            1             0.031932    [1[6[8][1][1]]]                                             
  H          -8.493821            -3.377078            -8.052661            1             0.031932    [1[6[8][1][1]]]                                             
