12

  C          -3.435710             10.324235            1.939552            0             0.099454    [6[8[1]][1][1][1]]                                          
  O          -3.963342             9.668011             0.767450            0            -0.597823    [8[6[1][1][1]][1]]                                          
  H          -3.207545             9.471691             0.170943            0             0.402573    [1[8[6]]]                                                   
  H          -3.833382             9.944569             2.858912            0             0.031932    [1[6[8][1][1]]]                                             
  H          -2.375822             10.071224            2.080466            0             0.031932    [1[6[8][1][1]]]                                             
  H          -3.681451             11.376608            2.054490            0             0.031932    [1[6[8][1][1]]]                                             
  C          -3.138727             8.217239            -2.120672            1             0.099454    [6[8[1]][1][1][1]]                                          
  O          -2.282853             9.113877            -1.452980            1            -0.597823    [8[6[1][1][1]][1]]                                          
  H          -1.562106             9.383899            -2.066874            1             0.402573    [1[8[6]]]                                                   
  H          -4.233444             8.302739            -1.951435            1             0.031932    [1[6[8][1][1]]]                                             
  H          -3.002167             8.357074            -3.218072            1             0.031932    [1[6[8][1][1]]]                                             
  H          -2.872180             7.127421            -1.853362            1             0.031932    [1[6[8][1][1]]]                                             
