12

  C          -1.179900            -8.638037            -6.948018            0             0.099454    [6[8[1]][1][1][1]]                                          
  O          -1.535437            -7.599694            -7.826611            0            -0.597823    [8[6[1][1][1]][1]]                                          
  H          -1.999492            -7.996814            -8.546439            0             0.402573    [1[8[6]]]                                                   
  H          -1.140443            -8.346784            -5.893805            0             0.031932    [1[6[8][1][1]]]                                             
  H          -1.993029            -9.398908            -7.027883            0             0.031932    [1[6[8][1][1]]]                                             
  H          -0.248926            -9.165004            -7.282007            0             0.031932    [1[6[8][1][1]]]                                             
  C          -1.049376            -6.741063            -1.692879            1             0.099454    [6[8[1]][1][1][1]]                                          
  O          -1.129249            -7.289579            -2.969097            1            -0.597823    [8[6[1][1][1]][1]]                                          
  H          -0.229527            -7.260778            -3.337332            1             0.402573    [1[8[6]]]                                                   
  H          -1.107026            -5.652595            -1.728562            1             0.031932    [1[6[8][1][1]]]                                             
  H          -1.851212            -7.119840            -1.114587            1             0.031932    [1[6[8][1][1]]]                                             
  H          -0.121948            -7.036954            -1.131693            1             0.031932    [1[6[8][1][1]]]                                             
