12

  C           9.233327            -0.528763            -4.361532            0             0.099454    [6[8[1]][1][1][1]]                                          
  O           9.761373            -0.754829            -3.092881            0            -0.597823    [8[6[1][1][1]][1]]                                          
  H           10.513552           -0.142675            -2.990355            0             0.402573    [1[8[6]]]                                                   
  H           8.569565            -1.431907            -4.631356            0             0.031932    [1[6[8][1][1]]]                                             
  H           8.690811             0.403372            -4.442943            0             0.031932    [1[6[8][1][1]]]                                             
  H           10.105521           -0.462022            -5.026567            0             0.031932    [1[6[8][1][1]]]                                             
  C           10.465747            2.642601            -3.006390            1             0.099454    [6[8[1]][1][1][1]]                                          
  O           11.365031            1.578863            -3.139401            1            -0.597823    [8[6[1][1][1]][1]]                                          
  H           12.139437            1.915457            -3.631726            1             0.402573    [1[8[6]]]                                                   
  H           9.537111             2.306168            -2.554527            1             0.031932    [1[6[8][1][1]]]                                             
  H           10.851904            3.486465            -2.475135            1             0.031932    [1[6[8][1][1]]]                                             
  H           10.167365            2.986200            -4.020478            1             0.031932    [1[6[8][1][1]]]                                             
