12

  C           9.977652            -2.198286            -7.359169            0             0.099454    [6[8[1]][1][1][1]]                                          
  O           11.412398           -2.219645            -7.354476            0            -0.597823    [8[6[1][1][1]][1]]                                          
  H           11.773627           -1.911416            -6.524812            0             0.402573    [1[8[6]]]                                                   
  H           9.486885            -2.938841            -6.747138            0             0.031932    [1[6[8][1][1]]]                                             
  H           9.553607            -1.262547            -7.091710            0             0.031932    [1[6[8][1][1]]]                                             
  H           9.519030            -2.212074            -8.322583            0             0.031932    [1[6[8][1][1]]]                                             
  C           8.034891            -1.920897            -4.227708            1             0.099454    [6[8[1]][1][1][1]]                                          
  O           7.002799            -2.793899            -3.753995            1            -0.597823    [8[6[1][1][1]][1]]                                          
  H           6.599531            -2.342380            -3.017579            1             0.402573    [1[8[6]]]                                                   
  H           9.101493            -2.307830            -4.128020            1             0.031932    [1[6[8][1][1]]]                                             
  H           7.804135            -1.642100            -5.314984            1             0.031932    [1[6[8][1][1]]]                                             
  H           8.083088            -0.956332            -3.709270            1             0.031932    [1[6[8][1][1]]]                                             
