12

  C          -7.007349            -1.144649             3.500469            0             0.099454    [6[8[1]][1][1][1]]                                          
  O          -8.062539            -2.026212             3.825962            0            -0.597823    [8[6[1][1][1]][1]]                                          
  H          -8.047566            -2.332672             4.734233            0             0.402573    [1[8[6]]]                                                   
  H          -7.376395            -0.294412             2.890347            0             0.031932    [1[6[8][1][1]]]                                             
  H          -6.574996            -0.687482             4.454638            0             0.031932    [1[6[8][1][1]]]                                             
  H          -6.225119            -1.631320             2.828627            0             0.031932    [1[6[8][1][1]]]                                             
  C          -11.080017           -0.871185             3.257404            1             0.099454    [6[8[1]][1][1][1]]                                          
  O          -10.361286           -1.402677             2.164674            1            -0.597823    [8[6[1][1][1]][1]]                                          
  H          -9.749079            -2.027279             2.644126            1             0.402573    [1[8[6]]]                                                   
  H          -10.470056           -0.077454             3.599917            1             0.031932    [1[6[8][1][1]]]                                             
  H          -12.139159           -0.623412             2.937376            1             0.031932    [1[6[8][1][1]]]                                             
  H          -11.228174           -1.632528             4.075493            1             0.031932    [1[6[8][1][1]]]                                             
