12

  C           0.659082             8.615269            -3.643497            0             0.099454    [6[8[1]][1][1][1]]                                          
  O           0.571755             9.841283            -3.042450            0            -0.597823    [8[6[1][1][1]][1]]                                          
  H           0.633439             10.539445           -3.712564            0             0.402573    [1[8[6]]]                                                   
  H           1.490287             8.549697            -4.355124            0             0.031932    [1[6[8][1][1]]]                                             
  H           0.762765             7.880298            -2.852222            0             0.031932    [1[6[8][1][1]]]                                             
  H          -0.254403             8.351689            -4.285406            0             0.031932    [1[6[8][1][1]]]                                             
  C           2.302825             5.372533            -7.243400            1             0.099454    [6[8[1]][1][1][1]]                                          
  O           3.642213             4.939602            -6.990858            1            -0.597823    [8[6[1][1][1]][1]]                                          
  H           4.230001             5.532004            -7.423894            1             0.402573    [1[8[6]]]                                                   
  H           1.829396             4.900507            -8.072251            1             0.031932    [1[6[8][1][1]]]                                             
  H           1.624187             5.072687            -6.452229            1             0.031932    [1[6[8][1][1]]]                                             
  H           2.318800             6.441176            -7.319937            1             0.031932    [1[6[8][1][1]]]                                             
