12

  C          -2.839955            -3.953407            -0.078150            0             0.099454    [6[8[1]][1][1][1]]                                          
  O          -2.008247            -2.946951             0.371114            0            -0.597823    [8[6[1][1][1]][1]]                                          
  H          -2.187683            -2.219467            -0.178250            0             0.402573    [1[8[6]]]                                                   
  H          -3.058394            -3.772306            -1.120352            0             0.031932    [1[6[8][1][1]]]                                             
  H          -2.431864            -4.948480             0.016022            0             0.031932    [1[6[8][1][1]]]                                             
  H          -3.792097            -3.920621             0.402216            0             0.031932    [1[6[8][1][1]]]                                             
  C           1.720387             0.254401             2.862474            1             0.099454    [6[8[1]][1][1][1]]                                          
  O           1.437891            -0.553017             1.745106            1            -0.597823    [8[6[1][1][1]][1]]                                          
  H           1.135046            -1.350429             2.138803            1             0.402573    [1[8[6]]]                                                   
  H           0.852401             0.675602             3.353505            1             0.031932    [1[6[8][1][1]]]                                             
  H           2.415632            -0.354741             3.568618            1             0.031932    [1[6[8][1][1]]]                                             
  H           2.207707             1.073727             2.452199            1             0.031932    [1[6[8][1][1]]]                                             
