12

  C           0.395747             0.499302             3.166637            0             0.099454    [6[8[1]][1][1][1]]                                          
  O          -0.741435             1.109411             2.820772            0            -0.597823    [8[6[1][1][1]][1]]                                          
  H          -1.443136             0.800324             3.428644            0             0.402573    [1[8[6]]]                                                   
  H           0.572906             0.753819             4.234277            0             0.031932    [1[6[8][1][1]]]                                             
  H           0.320529            -0.597235             3.056164            0             0.031932    [1[6[8][1][1]]]                                             
  H           1.203881             0.845296             2.442496            0             0.031932    [1[6[8][1][1]]]                                             
  C           3.793136            -2.119971             5.263232            1             0.099454    [6[8[1]][1][1][1]]                                          
  O           4.220589            -3.495471             5.145390            1            -0.597823    [8[6[1][1][1]][1]]                                          
  H           3.619160            -3.900213             4.545235            1             0.402573    [1[8[6]]]                                                   
  H           3.588674            -1.651833             4.345481            1             0.031932    [1[6[8][1][1]]]                                             
  H           2.919482            -2.042182             5.867256            1             0.031932    [1[6[8][1][1]]]                                             
  H           4.566814            -1.552746             5.743861            1             0.031932    [1[6[8][1][1]]]                                             
