12

  C           4.271779             4.712240             5.343485            0             0.099454    [6[8[1]][1][1][1]]                                          
  O           4.861457             5.690898             4.454410            0            -0.597823    [8[6[1][1][1]][1]]                                          
  H           4.587557             5.662843             3.570705            0             0.402573    [1[8[6]]]                                                   
  H           4.713760             3.664029             5.121006            0             0.031932    [1[6[8][1][1]]]                                             
  H           4.705710             4.923602             6.335144            0             0.031932    [1[6[8][1][1]]]                                             
  H           3.190266             4.808637             5.377588            0             0.031932    [1[6[8][1][1]]]                                             
  C           5.110090             6.030878             9.552916            1             0.099454    [6[8[1]][1][1][1]]                                          
  O           4.462541             4.833311             9.976876            1            -0.597823    [8[6[1][1][1]][1]]                                          
  H           5.022148             4.085320             9.689814            1             0.402573    [1[8[6]]]                                                   
  H           6.186430             6.054454             9.802716            1             0.031932    [1[6[8][1][1]]]                                             
  H           4.988280             6.220196             8.565189            1             0.031932    [1[6[8][1][1]]]                                             
  H           4.597550             6.913125             9.944467            1             0.031932    [1[6[8][1][1]]]                                             
