12

  C           10.311949           -0.204251            -2.808328            0             0.099454    [6[8[1]][1][1][1]]                                          
  O           10.231334            1.100341            -2.321599            0            -0.597823    [8[6[1][1][1]][1]]                                          
  H           10.876962            1.230900            -1.592367            0             0.402573    [1[8[6]]]                                                   
  H           9.962635            -0.245599            -3.763337            0             0.031932    [1[6[8][1][1]]]                                             
  H           11.283199           -0.694497            -2.911589            0             0.031932    [1[6[8][1][1]]]                                             
  H           9.708854            -0.907636            -2.254651            0             0.031932    [1[6[8][1][1]]]                                             
  C           10.052280            5.452050            -1.503370            1             0.099454    [6[8[1]][1][1][1]]                                          
  O           10.973635            4.329790            -1.606083            1            -0.597823    [8[6[1][1][1]][1]]                                          
  H           10.599673            3.696722            -2.185244            1             0.402573    [1[8[6]]]                                                   
  H           9.397262             5.643016            -2.412208            1             0.031932    [1[6[8][1][1]]]                                             
  H           9.391628             5.350623            -0.707857            1             0.031932    [1[6[8][1][1]]]                                             
  H           10.655890            6.370214            -1.350950            1             0.031932    [1[6[8][1][1]]]                                             
