12

  C          -6.460874             11.317236            1.150653            0             0.099454    [6[8[1]][1][1][1]]                                          
  O          -5.386241             11.510456            1.972449            0            -0.597823    [8[6[1][1][1]][1]]                                          
  H          -4.744983             10.797700            1.904435            0             0.402573    [1[8[6]]]                                                   
  H          -6.718436             10.244920            1.063984            0             0.031932    [1[6[8][1][1]]]                                             
  H          -7.330148             11.972840            1.477804            0             0.031932    [1[6[8][1][1]]]                                             
  H          -6.265406             11.552220            0.117566            0             0.031932    [1[6[8][1][1]]]                                             
  C          -3.434642             10.098755           -2.541995            1             0.099454    [6[8[1]][1][1][1]]                                          
  O          -2.486791             9.020784            -2.459724            1            -0.597823    [8[6[1][1][1]][1]]                                          
  H          -1.622324             9.363562            -2.421603            1             0.402573    [1[8[6]]]                                                   
  H          -4.241317             9.969688            -1.871554            1             0.031932    [1[6[8][1][1]]]                                             
  H          -2.977795             11.011380           -2.118214            1             0.031932    [1[6[8][1][1]]]                                             
  H          -3.871249             10.220332           -3.510029            1             0.031932    [1[6[8][1][1]]]                                             
