12

  C           3.964316             3.347006             8.560207            0             0.099454    [6[8[1]][1][1][1]]                                          
  O           2.798326             3.703831             7.869844            0            -0.597823    [8[6[1][1][1]][1]]                                          
  H           2.181258             4.153824             8.473695            0             0.402573    [1[8[6]]]                                                   
  H           4.313658             4.116674             9.230770            0             0.031932    [1[6[8][1][1]]]                                             
  H           3.796506             2.467997             9.113621            0             0.031932    [1[6[8][1][1]]]                                             
  H           4.797698             3.092619             7.910218            0             0.031932    [1[6[8][1][1]]]                                             
  C           2.851664             1.089842             5.929155            1             0.099454    [6[8[1]][1][1][1]]                                          
  O           2.800874             2.422255             5.487146            1            -0.597823    [8[6[1][1][1]][1]]                                          
  H           2.805284             3.010479             6.209970            1             0.402573    [1[8[6]]]                                                   
  H           3.445435             0.940129             6.837272            1             0.031932    [1[6[8][1][1]]]                                             
  H           1.843251             0.715008             6.075384            1             0.031932    [1[6[8][1][1]]]                                             
  H           3.338209             0.433450             5.169792            1             0.031932    [1[6[8][1][1]]]                                             
