12

  C           0.144533             7.444770            -7.804987            0             0.099454    [6[8[1]][1][1][1]]                                          
  O           0.144891             6.880795            -9.100725            0            -0.597823    [8[6[1][1][1]][1]]                                          
  H          -0.650697             7.358207            -9.428754            0             0.402573    [1[8[6]]]                                                   
  H           0.821578             8.332764            -7.724410            0             0.031932    [1[6[8][1][1]]]                                             
  H          -0.873954             7.853683            -7.633560            0             0.031932    [1[6[8][1][1]]]                                             
  H           0.352665             6.719431            -7.040636            0             0.031932    [1[6[8][1][1]]]                                             
  C           2.532536             4.250372            -10.407954           1             0.099454    [6[8[1]][1][1][1]]                                          
  O           2.136680             4.887346            -9.218160            1            -0.597823    [8[6[1][1][1]][1]]                                          
  H           1.826532             5.753218            -9.459123            1             0.402573    [1[8[6]]]                                                   
  H           3.161165             4.848346            -11.093476           1             0.031932    [1[6[8][1][1]]]                                             
  H           3.211371             3.370717            -10.306538           1             0.031932    [1[6[8][1][1]]]                                             
  H           1.683900             3.943087            -11.048109           1             0.031932    [1[6[8][1][1]]]                                             
