12

  C          -2.822106            -6.085736            -1.176755            0             0.099454    [6[8[1]][1][1][1]]                                          
  O          -3.789893            -5.113760            -1.527374            0            -0.597823    [8[6[1][1][1]][1]]                                          
  H          -3.604599            -4.836163            -2.428664            0             0.402573    [1[8[6]]]                                                   
  H          -2.878107            -6.458377            -0.129660            0             0.031932    [1[6[8][1][1]]]                                             
  H          -3.004079            -7.001722            -1.785518            0             0.031932    [1[6[8][1][1]]]                                             
  H          -1.772032            -5.826970            -1.226930            0             0.031932    [1[6[8][1][1]]]                                             
  C          -6.114271            -4.174263            -4.433466            1             0.099454    [6[8[1]][1][1][1]]                                          
  O          -5.494670            -2.928369            -4.092516            1            -0.597823    [8[6[1][1][1]][1]]                                          
  H          -4.533697            -2.975098            -4.012749            1             0.402573    [1[8[6]]]                                                   
  H          -6.480982            -4.712289            -3.577689            1             0.031932    [1[6[8][1][1]]]                                             
  H          -6.874887            -4.023896            -5.194205            1             0.031932    [1[6[8][1][1]]]                                             
  H          -5.447837            -4.851980            -5.023642            1             0.031932    [1[6[8][1][1]]]                                             
