12

  C           5.575884             3.455816             2.278661            0             0.099454    [6[8[1]][1][1][1]]                                          
  O           5.570222             4.240747             1.097227            0            -0.597823    [8[6[1][1][1]][1]]                                          
  H           5.316256             5.104723             1.255462            0             0.402573    [1[8[6]]]                                                   
  H           6.440792             2.781911             2.223781            0             0.031932    [1[6[8][1][1]]]                                             
  H           5.662425             4.071573             3.151950            0             0.031932    [1[6[8][1][1]]]                                             
  H           4.681182             2.723832             2.396170            0             0.031932    [1[6[8][1][1]]]                                             
  C           1.018940             6.694985            -1.032136            1             0.099454    [6[8[1]][1][1][1]]                                          
  O           2.230174             6.372593            -0.305373            1            -0.597823    [8[6[1][1][1]][1]]                                          
  H           2.404146             5.410996            -0.444812            1             0.402573    [1[8[6]]]                                                   
  H           0.998442             7.759421            -1.303204            1             0.031932    [1[6[8][1][1]]]                                             
  H           1.070386             6.146931            -2.024044            1             0.031932    [1[6[8][1][1]]]                                             
  H           0.123242             6.356830            -0.452372            1             0.031932    [1[6[8][1][1]]]                                             
