12

  C           3.266396            -0.889285            -2.984227            0             0.099454    [6[8[1]][1][1][1]]                                          
  O           3.505058             0.481020            -3.203924            0            -0.597823    [8[6[1][1][1]][1]]                                          
  H           2.891223             0.829937            -3.866826            0             0.402573    [1[8[6]]]                                                   
  H           2.185870            -1.135374            -3.076854            0             0.031932    [1[6[8][1][1]]]                                             
  H           3.829845            -1.465213            -3.662764            0             0.031932    [1[6[8][1][1]]]                                             
  H           3.600866            -1.211609            -1.939577            0             0.031932    [1[6[8][1][1]]]                                             
  C           6.847252            -0.409214            -1.932660            1             0.099454    [6[8[1]][1][1][1]]                                          
  O           6.534939             0.049947            -3.234879            1            -0.597823    [8[6[1][1][1]][1]]                                          
  H           5.542417             0.153715            -3.347247            1             0.402573    [1[8[6]]]                                                   
  H           7.174326             0.404481            -1.335421            1             0.031932    [1[6[8][1][1]]]                                             
  H           6.014298            -0.959470            -1.467209            1             0.031932    [1[6[8][1][1]]]                                             
  H           7.638583            -1.246601            -1.938652            1             0.031932    [1[6[8][1][1]]]                                             
