12

  C          -9.920008             8.883950             6.843420            0             0.099454    [6[8[1]][1][1][1]]                                          
  O          -9.676618             10.235881            6.367285            0            -0.597823    [8[6[1][1][1]][1]]                                          
  H          -10.460500            10.736840            6.502971            0             0.402573    [1[8[6]]]                                                   
  H          -10.574296            8.794333             7.667369            0             0.031932    [1[6[8][1][1]]]                                             
  H          -10.354068            8.266734             6.057869            0             0.031932    [1[6[8][1][1]]]                                             
  H          -8.961995             8.431970             7.171665            0             0.031932    [1[6[8][1][1]]]                                             
  C          -7.186075             11.170075            3.582957            1             0.099454    [6[8[1]][1][1][1]]                                          
  O          -8.425547             10.558925            3.306443            1            -0.597823    [8[6[1][1][1]][1]]                                          
  H          -8.844118             10.414870            4.193766            1             0.402573    [1[8[6]]]                                                   
  H          -7.164211             11.907956            4.380456            1             0.031932    [1[6[8][1][1]]]                                             
  H          -6.391668             10.488721            3.877052            1             0.031932    [1[6[8][1][1]]]                                             
  H          -6.819886             11.670884            2.659002            1             0.031932    [1[6[8][1][1]]]                                             
