12

  C           5.799702             10.013961           -6.139659            0             0.099454    [6[8[1]][1][1][1]]                                          
  O           6.314410             9.354648            -5.022214            0            -0.597823    [8[6[1][1][1]][1]]                                          
  H           6.679682             8.539401            -5.378463            0             0.402573    [1[8[6]]]                                                   
  H           5.031475             9.459829            -6.584512            0             0.031932    [1[6[8][1][1]]]                                             
  H           5.568476             11.039382           -5.914100            0             0.031932    [1[6[8][1][1]]]                                             
  H           6.622979             10.145301           -6.957438            0             0.031932    [1[6[8][1][1]]]                                             
  C           6.484678             7.460578            -1.082355            1             0.099454    [6[8[1]][1][1][1]]                                          
  O           5.201355             7.955092            -0.723691            1            -0.597823    [8[6[1][1][1]][1]]                                          
  H           5.254974             8.894137            -0.816187            1             0.402573    [1[8[6]]]                                                   
  H           7.325725             7.909387            -0.463628            1             0.031932    [1[6[8][1][1]]]                                             
  H           6.487008             6.411832            -0.846857            1             0.031932    [1[6[8][1][1]]]                                             
  H           6.782900             7.473782            -2.128927            1             0.031932    [1[6[8][1][1]]]                                             
