12

  C           0.567218             6.000519             3.160337            0             0.099454    [6[8[1]][1][1][1]]                                          
  O           0.360484             6.270881             1.769133            0            -0.597823    [8[6[1][1][1]][1]]                                          
  H          -0.567800             6.452111             1.611484            0             0.402573    [1[8[6]]]                                                   
  H           1.629474             5.820001             3.235269            0             0.031932    [1[6[8][1][1]]]                                             
  H           0.317510             6.933082             3.730363            0             0.031932    [1[6[8][1][1]]]                                             
  H          -0.035569             5.195958             3.619373            0             0.031932    [1[6[8][1][1]]]                                             
  C          -3.388804             8.122191             1.701161            1             0.099454    [6[8[1]][1][1][1]]                                          
  O          -2.367845             7.359115             2.398471            1            -0.597823    [8[6[1][1][1]][1]]                                          
  H          -2.659506             7.307764             3.285313            1             0.402573    [1[8[6]]]                                                   
  H          -4.221922             7.445057             1.494477            1             0.031932    [1[6[8][1][1]]]                                             
  H          -3.808663             8.965519             2.293888            1             0.031932    [1[6[8][1][1]]]                                             
  H          -3.105346             8.542818             0.758445            1             0.031932    [1[6[8][1][1]]]                                             
