12

  C           4.218830            -7.367409             10.092198           0             0.099454    [6[8[1]][1][1][1]]                                          
  O           4.342444            -8.557732             10.803951           0            -0.597823    [8[6[1][1][1]][1]]                                          
  H           4.070487            -8.609899             11.692965           0             0.402573    [1[8[6]]]                                                   
  H           3.801504            -7.551489             9.084576            0             0.031932    [1[6[8][1][1]]]                                             
  H           3.484433            -6.691170             10.435203           0             0.031932    [1[6[8][1][1]]]                                             
  H           5.199852            -6.817999             10.009492           0             0.031932    [1[6[8][1][1]]]                                             
  C           2.150202            -4.868944             5.313812            1             0.099454    [6[8[1]][1][1][1]]                                          
  O           1.539903            -3.847500             6.025287            1            -0.597823    [8[6[1][1][1]][1]]                                          
  H           1.102995            -3.372393             5.293624            1             0.402573    [1[8[6]]]                                                   
  H           2.596078            -5.698066             5.913052            1             0.031932    [1[6[8][1][1]]]                                             
  H           1.498631            -5.241180             4.529990            1             0.031932    [1[6[8][1][1]]]                                             
  H           2.939477            -4.406176             4.686918            1             0.031932    [1[6[8][1][1]]]                                             
