12

  C          -3.521737            -6.032928            -3.997539            0             0.099454    [6[8[1]][1][1][1]]                                          
  O          -3.209134            -4.842496            -3.204906            0            -0.597823    [8[6[1][1][1]][1]]                                          
  H          -3.319984            -4.094860            -3.795784            0             0.402573    [1[8[6]]]                                                   
  H          -3.627151            -6.940647            -3.414398            0             0.031932    [1[6[8][1][1]]]                                             
  H          -4.523750            -5.897630            -4.422226            0             0.031932    [1[6[8][1][1]]]                                             
  H          -2.762533            -6.264531            -4.740990            0             0.031932    [1[6[8][1][1]]]                                             
  C          -7.384591            -5.803450            -3.268758            1             0.099454    [6[8[1]][1][1][1]]                                          
  O          -6.320142            -6.327695            -2.550983            1            -0.597823    [8[6[1][1][1]][1]]                                          
  H          -5.901000            -5.572593            -2.211143            1             0.402573    [1[8[6]]]                                                   
  H          -7.027067            -4.995892            -3.920319            1             0.031932    [1[6[8][1][1]]]                                             
  H          -7.912776            -6.587076            -3.837397            1             0.031932    [1[6[8][1][1]]]                                             
  H          -8.019997            -5.265419            -2.574121            1             0.031932    [1[6[8][1][1]]]                                             
