6

  C          -6.053073            -3.975525            -8.431801            0             0.089063    [6[8[1]][1][1][1]]                                          
  O          -6.375768            -4.051434            -7.027885            0            -0.604789    [8[6[1][1][1]][1]]                                          
  H          -5.564738            -3.932327            -6.588004            0             0.406250    [1[8[6]]]                                                   
  H          -5.594269            -2.944110            -8.602753            0             0.036492    [1[6[8][1][1]]]                                             
  H          -5.251478            -4.759371            -8.676464            0             0.036492    [1[6[8][1][1]]]                                             
  H          -6.960758            -4.076662            -9.015425            0             0.036492    [1[6[8][1][1]]]                                             
