6

  C          -5.978338             3.614962            -5.693333            0             0.089063    [6[8[1]][1][1][1]]                                          
  O          -6.634230             3.220069            -6.907562            0            -0.604789    [8[6[1][1][1]][1]]                                          
  H          -7.443305             2.703362            -6.688042            0             0.406250    [1[8[6]]]                                                   
  H          -5.761461             2.739398            -5.055314            0             0.036492    [1[6[8][1][1]]]                                             
  H          -5.102059             4.099193            -5.866813            0             0.036492    [1[6[8][1][1]]]                                             
  H          -6.626964             4.314765            -5.108241            0             0.036492    [1[6[8][1][1]]]                                             
