12

  C           10.107105           -5.583094             0.898709            0             0.099454    [6[8[1]][1][1][1]]                                          
  O           9.277626            -4.510390             1.399296            0            -0.597823    [8[6[1][1][1]][1]]                                          
  H           9.836118            -3.927165             1.959038            0             0.402573    [1[8[6]]]                                                   
  H           11.109694           -5.474125             1.303897            0             0.031932    [1[6[8][1][1]]]                                             
  H           9.825191            -6.604012             1.214564            0             0.031932    [1[6[8][1][1]]]                                             
  H           10.273370           -5.608392            -0.218637            0             0.031932    [1[6[8][1][1]]]                                             
  C           8.923813            -0.098767             0.102245            1             0.099454    [6[8[1]][1][1][1]]                                          
  O           9.582362            -1.326979             0.347016            1            -0.597823    [8[6[1][1][1]][1]]                                          
  H           9.023009            -2.103097             0.072596            1             0.402573    [1[8[6]]]                                                   
  H           8.093396            -0.021769             0.727830            1             0.031932    [1[6[8][1][1]]]                                             
  H           9.461664             0.800306             0.080617            1             0.031932    [1[6[8][1][1]]]                                             
  H           8.508285            -0.104171            -0.930753            1             0.031932    [1[6[8][1][1]]]                                             
