12

  C          -1.936839            -7.101095            -2.876770            0             0.099454    [6[8[1]][1][1][1]]                                          
  O          -3.061484            -6.946725            -2.043370            0            -0.597823    [8[6[1][1][1]][1]]                                          
  H          -3.335684            -6.055807            -2.122500            0             0.402573    [1[8[6]]]                                                   
  H          -1.004453            -6.991422            -2.356135            0             0.031932    [1[6[8][1][1]]]                                             
  H          -1.884352            -8.095574            -3.432958            0             0.031932    [1[6[8][1][1]]]                                             
  H          -1.945391            -6.367581            -3.715468            0             0.031932    [1[6[8][1][1]]]                                             
  C          -3.913443            -10.367593           -0.619006            1             0.099454    [6[8[1]][1][1][1]]                                          
  O          -3.032838            -11.467707           -0.763594            1            -0.597823    [8[6[1][1][1]][1]]                                          
  H          -2.533344            -11.548166            0.061452            1             0.402573    [1[8[6]]]                                                   
  H          -4.537743            -10.150779           -1.524708            1             0.031932    [1[6[8][1][1]]]                                             
  H          -4.580331            -10.547433            0.262675            1             0.031932    [1[6[8][1][1]]]                                             
  H          -3.330481            -9.510521            -0.349726            1             0.031932    [1[6[8][1][1]]]                                             
