12

  C          -10.430630            5.965214            -6.659766            0             0.099454    [6[8[1]][1][1][1]]                                          
  O          -11.506915            6.842817            -6.664926            0            -0.597823    [8[6[1][1][1]][1]]                                          
  H          -12.269845            6.244401            -6.518812            0             0.402573    [1[8[6]]]                                                   
  H          -10.239529            5.594698            -5.660409            0             0.031932    [1[6[8][1][1]]]                                             
  H          -10.552653            5.211127            -7.463928            0             0.031932    [1[6[8][1][1]]]                                             
  H          -9.466643             6.469908            -6.833632            0             0.031932    [1[6[8][1][1]]]                                             
  C          -8.561972             4.980688            -1.128294            1             0.099454    [6[8[1]][1][1][1]]                                          
  O          -8.776555             4.446458             0.175048            1            -0.597823    [8[6[1][1][1]][1]]                                          
  H          -9.757550             4.274761             0.155309            1             0.402573    [1[8[6]]]                                                   
  H          -9.265407             4.589186            -1.812265            1             0.031932    [1[6[8][1][1]]]                                             
  H          -8.549891             6.069679            -1.239806            1             0.031932    [1[6[8][1][1]]]                                             
  H          -7.606788             4.543564            -1.492682            1             0.031932    [1[6[8][1][1]]]                                             
