12

  C           1.789285             9.798423            -2.464702            0             0.099454    [6[8[1]][1][1][1]]                                          
  O           2.889570             10.586637           -2.007297            0            -0.597823    [8[6[1][1][1]][1]]                                          
  H           2.798921             10.643839           -1.020595            0             0.402573    [1[8[6]]]                                                   
  H           1.306149             10.392855           -3.281718            0             0.031932    [1[6[8][1][1]]]                                             
  H           2.071224             8.818361            -2.858965            0             0.031932    [1[6[8][1][1]]]                                             
  H           0.975558             9.695420            -1.724452            0             0.031932    [1[6[8][1][1]]]                                             
  C           3.597850             6.703226            -5.244786            1             0.099454    [6[8[1]][1][1][1]]                                          
  O           2.615310             6.600177            -6.234061            1            -0.597823    [8[6[1][1][1]][1]]                                          
  H           2.499694             5.656015            -6.206154            1             0.402573    [1[8[6]]]                                                   
  H           4.143364             7.589967            -5.452045            1             0.031932    [1[6[8][1][1]]]                                             
  H           3.049037             6.789531            -4.301434            1             0.031932    [1[6[8][1][1]]]                                             
  H           4.181735             5.813878            -5.175378            1             0.031932    [1[6[8][1][1]]]                                             
