12

  C           3.968792             8.387656             10.579955           0             0.099454    [6[8[1]][1][1][1]]                                          
  O           3.086890             7.272689             10.231642           0            -0.597823    [8[6[1][1][1]][1]]                                          
  H           2.188274             7.650745             10.307865           0             0.402573    [1[8[6]]]                                                   
  H           3.545260             8.992403             11.442318           0             0.031932    [1[6[8][1][1]]]                                             
  H           4.988270             8.027184             10.820508           0             0.031932    [1[6[8][1][1]]]                                             
  H           4.116574             8.997618             9.652648            0             0.031932    [1[6[8][1][1]]]                                             
  C           5.849089             5.190941             8.767723            1             0.099454    [6[8[1]][1][1][1]]                                          
  O           4.550791             5.140373             9.206326            1            -0.597823    [8[6[1][1][1]][1]]                                          
  H           4.169133             6.010848             9.327686            1             0.402573    [1[8[6]]]                                                   
  H           6.534993             5.393492             9.597090            1             0.031932    [1[6[8][1][1]]]                                             
  H           6.229892             4.328461             8.286398            1             0.031932    [1[6[8][1][1]]]                                             
  H           6.007129             6.055441             8.094881            1             0.031932    [1[6[8][1][1]]]                                             
