12

  C           5.933043             0.052721            -9.709095            0             0.099454    [6[8[1]][1][1][1]]                                          
  O           5.528336             0.447051            -10.968198           0            -0.597823    [8[6[1][1][1]][1]]                                          
  H           5.157719            -0.297805            -11.447300           0             0.402573    [1[8[6]]]                                                   
  H           6.258533            -0.932075            -9.626614            0             0.031932    [1[6[8][1][1]]]                                             
  H           6.793636             0.701506            -9.427070            0             0.031932    [1[6[8][1][1]]]                                             
  H           5.139158             0.209402            -9.025313            0             0.031932    [1[6[8][1][1]]]                                             
  C           6.677897             3.680953            -10.009311           1             0.099454    [6[8[1]][1][1][1]]                                          
  O           5.601949             3.338755            -9.115723            1            -0.597823    [8[6[1][1][1]][1]]                                          
  H           5.015415             2.754194            -9.571947            1             0.402573    [1[8[6]]]                                                   
  H           7.225566             2.797239            -10.323432           1             0.031932    [1[6[8][1][1]]]                                             
  H           6.255010             4.209416            -10.893649           1             0.031932    [1[6[8][1][1]]]                                             
  H           7.307395             4.413736            -9.506670            1             0.031932    [1[6[8][1][1]]]                                             
