12

  C           4.420336            -3.631376             1.742753            0             0.099454    [6[8[1]][1][1][1]]                                          
  O           3.162538            -4.207617             1.389367            0            -0.597823    [8[6[1][1][1]][1]]                                          
  H           2.908502            -4.657569             2.203867            0             0.402573    [1[8[6]]]                                                   
  H           4.810058            -2.966194             0.971924            0             0.031932    [1[6[8][1][1]]]                                             
  H           4.419981            -3.156620             2.638260            0             0.031932    [1[6[8][1][1]]]                                             
  H           5.257324            -4.385752             1.882703            0             0.031932    [1[6[8][1][1]]]                                             
  C          -0.016333            -2.488242            -0.118915            1             0.099454    [6[8[1]][1][1][1]]                                          
  O           1.397039            -2.664913            -0.010818            1            -0.597823    [8[6[1][1][1]][1]]                                          
  H           1.520192            -3.372147             0.554595            1             0.402573    [1[8[6]]]                                                   
  H          -0.521164            -3.413662            -0.468075            1             0.031932    [1[6[8][1][1]]]                                             
  H          -0.463068            -2.346561             0.852921            1             0.031932    [1[6[8][1][1]]]                                             
  H          -0.441045            -1.658200            -0.760794            1             0.031932    [1[6[8][1][1]]]                                             
