12

  C           8.208089             3.975349            -1.861267            0             0.099454    [6[8[1]][1][1][1]]                                          
  O           7.813825             2.619600            -2.292651            0            -0.597823    [8[6[1][1][1]][1]]                                          
  H           7.000944             2.319256            -1.900115            0             0.402573    [1[8[6]]]                                                   
  H           8.304451             4.108650            -0.728916            0             0.031932    [1[6[8][1][1]]]                                             
  H           9.262322             4.143959            -2.354098            0             0.031932    [1[6[8][1][1]]]                                             
  H           7.514508             4.812777            -2.164203            0             0.031932    [1[6[8][1][1]]]                                             
  C           6.148318             4.366646             1.432052            1             0.099454    [6[8[1]][1][1][1]]                                          
  O           4.770829             4.087702             1.337902            1            -0.597823    [8[6[1][1][1]][1]]                                          
  H           4.430615             3.687898             0.504427            1             0.402573    [1[8[6]]]                                                   
  H           6.572475             4.720490             0.510176            1             0.031932    [1[6[8][1][1]]]                                             
  H           6.351289             5.166952             2.177800            1             0.031932    [1[6[8][1][1]]]                                             
  H           6.768153             3.547680             1.813746            1             0.031932    [1[6[8][1][1]]]                                             
