12

  C          -8.943252            -7.348248             2.064146            0             0.099454    [6[8[1]][1][1][1]]                                          
  O          -8.854877            -8.616783             1.511822            0            -0.597823    [8[6[1][1][1]][1]]                                          
  H          -9.785357            -8.938947             1.557192            0             0.402573    [1[8[6]]]                                                   
  H          -7.983475            -6.876313             1.956709            0             0.031932    [1[6[8][1][1]]]                                             
  H          -9.635888            -6.670991             1.500144            0             0.031932    [1[6[8][1][1]]]                                             
  H          -9.236388            -7.364689             3.074729            0             0.031932    [1[6[8][1][1]]]                                             
  C          -8.806139            -3.804200            -0.537785            1             0.099454    [6[8[1]][1][1][1]]                                          
  O          -9.024071            -2.496550            -1.017201            1            -0.597823    [8[6[1][1][1]][1]]                                          
  H          -9.353899            -2.559543            -1.944128            1             0.402573    [1[8[6]]]                                                   
  H          -8.922862            -3.712289             0.568426            1             0.031932    [1[6[8][1][1]]]                                             
  H          -9.480058            -4.616308            -0.979368            1             0.031932    [1[6[8][1][1]]]                                             
  H          -7.833328            -4.174835            -0.732438            1             0.031932    [1[6[8][1][1]]]                                             
