12

  C          -4.658780            -2.037883             7.649658            0             0.099454    [6[8[1]][1][1][1]]                                          
  O          -5.337638            -1.572166             6.540238            0            -0.597823    [8[6[1][1][1]][1]]                                          
  H          -6.235660            -1.469603             6.901389            0             0.402573    [1[8[6]]]                                                   
  H          -3.612432            -1.652803             7.614765            0             0.031932    [1[6[8][1][1]]]                                             
  H          -5.188026            -1.588476             8.460927            0             0.031932    [1[6[8][1][1]]]                                             
  H          -4.629709            -3.094023             7.716798            0             0.031932    [1[6[8][1][1]]]                                             
  C          -8.782069            -0.807775             7.570743            1             0.099454    [6[8[1]][1][1][1]]                                          
  O          -8.483144            -2.095420             6.950535            1            -0.597823    [8[6[1][1][1]][1]]                                          
  H          -9.023656            -2.821554             7.231701            1             0.402573    [1[8[6]]]                                                   
  H          -8.608050            -0.917514             8.626769            1             0.031932    [1[6[8][1][1]]]                                             
  H          -8.249451             0.079255             7.182491            1             0.031932    [1[6[8][1][1]]]                                             
  H          -9.872292            -0.605238             7.324622            1             0.031932    [1[6[8][1][1]]]                                             
