12

  C           2.765020            -4.179074             5.805482            0             0.099454    [6[8[1]][1][1][1]]                                          
  O           3.311683            -5.446056             6.177687            0            -0.597823    [8[6[1][1][1]][1]]                                          
  H           3.331339            -5.364676             7.148464            0             0.402573    [1[8[6]]]                                                   
  H           2.715584            -4.021929             4.701500            0             0.031932    [1[6[8][1][1]]]                                             
  H           1.758848            -4.116859             6.285104            0             0.031932    [1[6[8][1][1]]]                                             
  H           3.338024            -3.374553             6.326295            0             0.031932    [1[6[8][1][1]]]                                             
  C           2.191472            -5.128815             10.041992           1             0.099454    [6[8[1]][1][1][1]]                                          
  O           1.236510            -5.513554             9.087137            1            -0.597823    [8[6[1][1][1]][1]]                                          
  H           1.192903            -4.907136             8.299144            1             0.402573    [1[8[6]]]                                                   
  H           2.415873            -6.001213             10.742687           1             0.031932    [1[6[8][1][1]]]                                             
  H           3.203520            -5.021277             9.536058            1             0.031932    [1[6[8][1][1]]]                                             
  H           2.051826            -4.189256             10.544379           1             0.031932    [1[6[8][1][1]]]                                             
