12

  C           2.453454             1.166860            -5.874115            0             0.099454    [6[8[1]][1][1][1]]                                          
  O           3.686145             1.240109            -5.184784            0            -0.597823    [8[6[1][1][1]][1]]                                          
  H           3.920853             2.166736            -5.242162            0             0.402573    [1[8[6]]]                                                   
  H           1.624176             1.779049            -5.362332            0             0.031932    [1[6[8][1][1]]]                                             
  H           2.542419             1.779453            -6.767790            0             0.031932    [1[6[8][1][1]]]                                             
  H           2.112095             0.179773            -6.170195            0             0.031932    [1[6[8][1][1]]]                                             
  C          -0.411546             4.687511            -8.903536            1             0.099454    [6[8[1]][1][1][1]]                                          
  O          -0.678299             5.400739            -10.086564           1            -0.597823    [8[6[1][1][1]][1]]                                          
  H          -0.546198             4.894099            -10.882617           1             0.402573    [1[8[6]]]                                                   
  H          -0.136972             5.398320            -8.128632            1             0.031932    [1[6[8][1][1]]]                                             
  H          -1.162960             4.005270            -8.509791            1             0.031932    [1[6[8][1][1]]]                                             
  H           0.489109             4.041766            -8.921315            1             0.031932    [1[6[8][1][1]]]                                             
