12

  C          -1.362543             6.784930             3.679058            0             0.099454    [6[8[1]][1][1][1]]                                          
  O          -0.219741             7.521161             3.879493            0            -0.597823    [8[6[1][1][1]][1]]                                          
  H           0.185538             7.018371             4.576261            0             0.402573    [1[8[6]]]                                                   
  H          -1.285645             5.847294             3.067514            0             0.031932    [1[6[8][1][1]]]                                             
  H          -1.664286             6.494515             4.688009            0             0.031932    [1[6[8][1][1]]]                                             
  H          -2.131244             7.378088             3.241805            0             0.031932    [1[6[8][1][1]]]                                             
  C          -2.110928             11.390825            7.574175            1             0.099454    [6[8[1]][1][1][1]]                                          
  O          -1.303257             10.316187            7.707575            1            -0.597823    [8[6[1][1][1]][1]]                                          
  H          -1.872668             9.562282             7.848446            1             0.402573    [1[8[6]]]                                                   
  H          -1.498166             12.268386            7.471384            1             0.031932    [1[6[8][1][1]]]                                             
  H          -2.755923             11.272451            6.697372            1             0.031932    [1[6[8][1][1]]]                                             
  H          -2.764465             11.399083            8.410064            1             0.031932    [1[6[8][1][1]]]                                             
