12

  C           4.711834            -8.345417            -1.787665            0             0.099454    [6[8[1]][1][1][1]]                                          
  O           4.351505            -9.380712            -2.640933            0            -0.597823    [8[6[1][1][1]][1]]                                          
  H           4.436691            -10.246070           -2.192788            0             0.402573    [1[8[6]]]                                                   
  H           5.247250            -7.520029            -2.200052            0             0.031932    [1[6[8][1][1]]]                                             
  H           3.785953            -7.910492            -1.349305            0             0.031932    [1[6[8][1][1]]]                                             
  H           5.296892            -8.815568            -0.964432            0             0.031932    [1[6[8][1][1]]]                                             
  C           4.786815            -6.918655            -5.102293            1             0.099454    [6[8[1]][1][1][1]]                                          
  O           5.975221            -6.467177            -5.763916            1            -0.597823    [8[6[1][1][1]][1]]                                          
  H           5.586546            -5.956710            -6.485934            1             0.402573    [1[8[6]]]                                                   
  H           3.852278            -6.570519            -5.593039            1             0.031932    [1[6[8][1][1]]]                                             
  H           4.767182            -8.010396            -5.028749            1             0.031932    [1[6[8][1][1]]]                                             
  H           4.846948            -6.625967            -4.050205            1             0.031932    [1[6[8][1][1]]]                                             
