12

  C           0.030164            -4.047049            -2.629038            0             0.099454    [6[8[1]][1][1][1]]                                          
  O          -1.138071            -4.695708            -3.059685            0            -0.597823    [8[6[1][1][1]][1]]                                          
  H          -0.944249            -5.458277            -3.624393            0             0.402573    [1[8[6]]]                                                   
  H           0.284661            -4.359550            -1.576838            0             0.031932    [1[6[8][1][1]]]                                             
  H           0.878129            -4.316467            -3.321165            0             0.031932    [1[6[8][1][1]]]                                             
  H          -0.148044            -2.943190            -2.634008            0             0.031932    [1[6[8][1][1]]]                                             
  C           0.843463            -7.556602            -5.269930            1             0.099454    [6[8[1]][1][1][1]]                                          
  O          -0.109867            -6.530455            -4.969174            1            -0.597823    [8[6[1][1][1]][1]]                                          
  H          -0.426746            -6.366069            -5.815214            1             0.402573    [1[8[6]]]                                                   
  H           1.214126            -7.455543            -6.328356            1             0.031932    [1[6[8][1][1]]]                                             
  H           1.683593            -7.813830            -4.603900            1             0.031932    [1[6[8][1][1]]]                                             
  H           0.279311            -8.509770            -5.307224            1             0.031932    [1[6[8][1][1]]]                                             
