12

  C           11.278388           -8.965989             3.740547            0             0.099454    [6[8[1]][1][1][1]]                                          
  O           11.382558           -8.519057             2.368297            0            -0.597823    [8[6[1][1][1]][1]]                                          
  H           10.453078           -8.329713             2.122993            0             0.402573    [1[8[6]]]                                                   
  H           11.178843           -8.180543             4.456480            0             0.031932    [1[6[8][1][1]]]                                             
  H           10.376415           -9.599793             3.820679            0             0.031932    [1[6[8][1][1]]]                                             
  H           12.075640           -9.604015             4.160586            0             0.031932    [1[6[8][1][1]]]                                             
  C           9.143372            -7.572181             0.008612            1             0.099454    [6[8[1]][1][1][1]]                                          
  O           8.942419            -7.574680             1.476600            1            -0.597823    [8[6[1][1][1]][1]]                                          
  H           8.089438            -7.102044             1.679372            1             0.402573    [1[8[6]]]                                                   
  H           8.147508            -7.555728            -0.501791            1             0.031932    [1[6[8][1][1]]]                                             
  H           9.797707            -6.727345            -0.336407            1             0.031932    [1[6[8][1][1]]]                                             
  H           9.685008            -8.484827            -0.339641            1             0.031932    [1[6[8][1][1]]]                                             
