12

  C           5.369477            -6.342536            -0.441178            0             0.099454    [6[8[1]][1][1][1]]                                          
  O           5.334754            -5.019816             0.209316            0            -0.597823    [8[6[1][1][1]][1]]                                          
  H           4.689948            -4.385982            -0.258636            0             0.402573    [1[8[6]]]                                                   
  H           5.435570            -7.157379             0.285672            0             0.031932    [1[6[8][1][1]]]                                             
  H           4.490291            -6.557346            -0.960870            0             0.031932    [1[6[8][1][1]]]                                             
  H           6.075459            -6.414477            -1.304671            0             0.031932    [1[6[8][1][1]]]                                             
  C           3.153078            -7.645306            -3.207908            1             0.099454    [6[8[1]][1][1][1]]                                          
  O           2.836734            -6.398947            -3.647315            1            -0.597823    [8[6[1][1][1]][1]]                                          
  H           3.203133            -6.282440            -4.503657            1             0.402573    [1[8[6]]]                                                   
  H           4.238093            -7.697912            -2.989028            1             0.031932    [1[6[8][1][1]]]                                             
  H           2.670314            -7.902382            -2.312206            1             0.031932    [1[6[8][1][1]]]                                             
  H           2.984515            -8.353490            -4.071394            1             0.031932    [1[6[8][1][1]]]                                             
