12

  C           4.218830            -7.367409             10.092198           0             0.099454    [6[8[1]][1][1][1]]                                          
  O           4.342444            -8.557732             10.803951           0            -0.597823    [8[6[1][1][1]][1]]                                          
  H           4.070487            -8.609899             11.692965           0             0.402573    [1[8[6]]]                                                   
  H           3.801504            -7.551489             9.084576            0             0.031932    [1[6[8][1][1]]]                                             
  H           3.484433            -6.691170             10.435203           0             0.031932    [1[6[8][1][1]]]                                             
  H           5.199852            -6.817999             10.009492           0             0.031932    [1[6[8][1][1]]]                                             
  C          -0.689859            -6.045129             10.141040           1             0.099454    [6[8[1]][1][1][1]]                                          
  O          -1.623886            -6.700733             9.380281            1            -0.597823    [8[6[1][1][1]][1]]                                          
  H          -1.112781            -7.355313             8.860090            1             0.402573    [1[8[6]]]                                                   
  H           0.213045            -6.562357             10.054029           1             0.031932    [1[6[8][1][1]]]                                             
  H          -0.605332            -4.968874             9.947013            1             0.031932    [1[6[8][1][1]]]                                             
  H          -0.933497            -6.123105             11.212937           1             0.031932    [1[6[8][1][1]]]                                             
