12

  C          -5.982742            -6.095501             1.316982            0             0.099454    [6[8[1]][1][1][1]]                                          
  O          -6.760569            -4.916011             1.577320            0            -0.597823    [8[6[1][1][1]][1]]                                          
  H          -6.135223            -4.206989             1.780978            0             0.402573    [1[8[6]]]                                                   
  H          -5.438071            -6.346295             2.215708            0             0.031932    [1[6[8][1][1]]]                                             
  H          -6.528076            -6.986041             1.068226            0             0.031932    [1[6[8][1][1]]]                                             
  H          -5.230619            -5.928635             0.561390            0             0.031932    [1[6[8][1][1]]]                                             
  C          -7.844242            -0.988290            -1.209791            1             0.099454    [6[8[1]][1][1][1]]                                          
  O          -6.413111            -1.000022            -0.951601            1            -0.597823    [8[6[1][1][1]][1]]                                          
  H          -6.157595            -1.889049            -1.046544            1             0.402573    [1[8[6]]]                                                   
  H          -8.237133             0.054909            -1.327894            1             0.031932    [1[6[8][1][1]]]                                             
  H          -8.068519            -1.457255            -2.187042            1             0.031932    [1[6[8][1][1]]]                                             
  H          -8.488866            -1.463421            -0.452614            1             0.031932    [1[6[8][1][1]]]                                             
