12

  C          -3.398559             9.277242            -8.201790            0             0.099454    [6[8[1]][1][1][1]]                                          
  O          -4.032347             8.859870            -6.981155            0            -0.597823    [8[6[1][1][1]][1]]                                          
  H          -4.233224             9.611003            -6.382598            0             0.402573    [1[8[6]]]                                                   
  H          -2.373946             9.338020            -8.026771            0             0.031932    [1[6[8][1][1]]]                                             
  H          -3.484931             8.505441            -8.993622            0             0.031932    [1[6[8][1][1]]]                                             
  H          -3.785504             10.262232           -8.579061            0             0.031932    [1[6[8][1][1]]]                                             
  C          -4.889492             5.088213            -7.807620            1             0.099454    [6[8[1]][1][1][1]]                                          
  O          -5.284673             6.187908            -6.949680            1            -0.597823    [8[6[1][1][1]][1]]                                          
  H          -4.981875             6.985051            -7.422708            1             0.402573    [1[8[6]]]                                                   
  H          -5.218055             5.066944            -8.850541            1             0.031932    [1[6[8][1][1]]]                                             
  H          -3.803294             5.005692            -7.858541            1             0.031932    [1[6[8][1][1]]]                                             
  H          -5.186663             4.075918            -7.382525            1             0.031932    [1[6[8][1][1]]]                                             
