12

  C           9.120961            -6.849547            -2.911448            0             0.099454    [6[8[1]][1][1][1]]                                          
  O           8.104281            -5.987390            -3.377930            0            -0.597823    [8[6[1][1][1]][1]]                                          
  H           7.520534            -6.399815            -3.979803            0             0.402573    [1[8[6]]]                                                   
  H           9.537305            -6.457883            -1.999201            0             0.031932    [1[6[8][1][1]]]                                             
  H           8.666208            -7.838895            -2.838411            0             0.031932    [1[6[8][1][1]]]                                             
  H           9.986982            -7.033741            -3.580794            0             0.031932    [1[6[8][1][1]]]                                             
  C           7.605091            -3.155752            -1.407141            1             0.099454    [6[8[1]][1][1][1]]                                          
  O           8.442560            -4.156556            -0.807862            1            -0.597823    [8[6[1][1][1]][1]]                                          
  H           8.707860            -4.810448            -1.492540            1             0.402573    [1[8[6]]]                                                   
  H           8.014981            -2.138971            -1.143179            1             0.031932    [1[6[8][1][1]]]                                             
  H           7.574775            -3.275983            -2.530497            1             0.031932    [1[6[8][1][1]]]                                             
  H           6.599084            -3.169128            -1.043752            1             0.031932    [1[6[8][1][1]]]                                             
