12

  C          -4.983724            -1.861540            -7.037725            0             0.099454    [6[8[1]][1][1][1]]                                          
  O          -5.308556            -0.500746            -6.993364            0            -0.597823    [8[6[1][1][1]][1]]                                          
  H          -5.230599            -0.272961            -7.890385            0             0.402573    [1[8[6]]]                                                   
  H          -4.141318            -2.148880            -7.659056            0             0.031932    [1[6[8][1][1]]]                                             
  H          -4.764248            -2.337265            -6.067641            0             0.031932    [1[6[8][1][1]]]                                             
  H          -5.873911            -2.396272            -7.501663            0             0.031932    [1[6[8][1][1]]]                                             
  C          -10.334582           -4.254306            -5.781806            1             0.099454    [6[8[1]][1][1][1]]                                          
  O          -9.139955            -3.452755            -5.800609            1            -0.597823    [8[6[1][1][1]][1]]                                          
  H          -8.833748            -3.296327            -6.693903            1             0.402573    [1[8[6]]]                                                   
  H          -10.701949           -4.294493            -4.818483            1             0.031932    [1[6[8][1][1]]]                                             
  H          -11.133352           -3.759334            -6.328138            1             0.031932    [1[6[8][1][1]]]                                             
  H          -10.229096           -5.277931            -6.251611            1             0.031932    [1[6[8][1][1]]]                                             
