6

  C           5.463850             9.221880            -0.277459            0             0.089063    [6[8[1]][1][1][1]]                                          
  O           5.036390             10.494550           -0.505910            0            -0.604789    [8[6[1][1][1]][1]]                                          
  H           5.743985             10.983707           -0.944206            0             0.406250    [1[8[6]]]                                                   
  H           5.916438             8.874486            -1.241364            0             0.036492    [1[6[8][1][1]]]                                             
  H           6.067915             9.211910             0.580314            0             0.036492    [1[6[8][1][1]]]                                             
  H           4.583290             8.543651            -0.093264            0             0.036492    [1[6[8][1][1]]]                                             
