12

  C           1.789285             9.798423            -2.464702            0             0.099454    [6[8[1]][1][1][1]]                                          
  O           2.889570             10.586637           -2.007297            0            -0.597823    [8[6[1][1][1]][1]]                                          
  H           2.798921             10.643839           -1.020595            0             0.402573    [1[8[6]]]                                                   
  H           1.306149             10.392855           -3.281718            0             0.031932    [1[6[8][1][1]]]                                             
  H           2.071224             8.818361            -2.858965            0             0.031932    [1[6[8][1][1]]]                                             
  H           0.975558             9.695420            -1.724452            0             0.031932    [1[6[8][1][1]]]                                             
  C           3.972388             7.500461             1.155394            1             0.099454    [6[8[1]][1][1][1]]                                          
  O           3.101798             7.379041             0.041502            1            -0.597823    [8[6[1][1][1]][1]]                                          
  H           3.500956             6.762614            -0.586978            1             0.402573    [1[8[6]]]                                                   
  H           3.788559             6.744071             1.904720            1             0.031932    [1[6[8][1][1]]]                                             
  H           4.981357             7.331220             0.888054            1             0.031932    [1[6[8][1][1]]]                                             
  H           3.961077             8.467816             1.742621            1             0.031932    [1[6[8][1][1]]]                                             
