28

C  1.33976000           0.50588000          -0.36755000         
C  2.84050000           0.28483000          -0.13462000         
C  3.60784000           1.52592000          -0.62814000         
C  3.09291000          -0.01887000           1.36474000         
C  4.52752000          -0.34388000           1.71891000         
O  5.39250000          -0.33550000           0.85951000         
C  4.87540000          -0.67933000           3.15312000         
C  6.37574000          -0.97387000           3.40978000         
C  6.60737000          -1.20449000           4.90939000         
C  6.87850000          -2.20635000           2.63486000         
H  1.14154000           0.69086000          -1.44518000         
H  0.97927000           1.38152000           0.21495000         
H  0.76076000          -0.39058000          -0.06023000         
H  3.15518000          -0.59655000          -0.73706000         
H  3.31886000           2.42310000          -0.04181000         
H  3.38362000           1.70624000          -1.70069000         
H  4.70478000           1.40375000          -0.55675000         
H  2.47660000          -0.89902000           1.65335000         
H  2.76338000           0.84910000           1.97615000         
H  4.26944000          -1.55542000           3.47129000         
H  4.57591000           0.19244000           3.77605000         
H  6.97266000          -0.08570000           3.10383000         
H  7.68672000          -1.37982000           5.10759000         
H  6.03387000          -2.08914000           5.26207000         
H  6.29046000          -0.31598000           5.49540000         
H  6.29495000          -3.10813000           2.91526000         
H  7.95099000          -2.38344000           2.86132000         
H  6.80947000          -2.07656000           1.53868000         
