12

  C           0.029205            -3.305085             5.575801            0             0.099454    [6[8[1]][1][1][1]]                                          
  O          -1.152025            -2.596991             5.492510            0            -0.597823    [8[6[1][1][1]][1]]                                          
  H          -0.980307            -2.042697             4.669758            0             0.402573    [1[8[6]]]                                                   
  H           0.889800            -2.641096             5.935441            0             0.031932    [1[6[8][1][1]]]                                             
  H          -0.058726            -4.169142             6.203153            0             0.031932    [1[6[8][1][1]]]                                             
  H           0.260555            -3.587206             4.550461            0             0.031932    [1[6[8][1][1]]]                                             
  C          -3.670822            -6.064125             7.339894            1             0.099454    [6[8[1]][1][1][1]]                                          
  O          -4.691461            -6.396064             6.476158            1            -0.597823    [8[6[1][1][1]][1]]                                          
  H          -4.406539            -7.041441             5.853589            1             0.402573    [1[8[6]]]                                                   
  H          -3.404148            -6.870549             8.037953            1             0.031932    [1[6[8][1][1]]]                                             
  H          -2.844383            -5.877841             6.668155            1             0.031932    [1[6[8][1][1]]]                                             
  H          -3.914924            -5.255383             8.072797            1             0.031932    [1[6[8][1][1]]]                                             
