12

  C          -1.585375            -0.526504             1.034932            0             0.099454    [6[8[1]][1][1][1]]                                          
  O          -1.659778            -0.611331             2.447003            0            -0.597823    [8[6[1][1][1]][1]]                                          
  H          -2.532319            -0.358363             2.745018            0             0.402573    [1[8[6]]]                                                   
  H          -0.888317             0.258825             0.604334            0             0.031932    [1[6[8][1][1]]]                                             
  H          -1.291051            -1.503012             0.632394            0             0.031932    [1[6[8][1][1]]]                                             
  H          -2.593034            -0.391837             0.618044            0             0.031932    [1[6[8][1][1]]]                                             
  C          -2.104841             3.084643             0.843986            1             0.099454    [6[8[1]][1][1][1]]                                          
  O          -2.083600             4.380224             0.255319            1            -0.597823    [8[6[1][1][1]][1]]                                          
  H          -2.532505             4.933065             0.852834            1             0.402573    [1[8[6]]]                                                   
  H          -3.153345             2.671950             0.795559            1             0.031932    [1[6[8][1][1]]]                                             
  H          -1.390689             2.419240             0.375458            1             0.031932    [1[6[8][1][1]]]                                             
  H          -1.825190             3.096817             1.930390            1             0.031932    [1[6[8][1][1]]]                                             
