12

  C           3.428928             8.666497             5.285069            0             0.099454    [6[8[1]][1][1][1]]                                          
  O           4.762131             8.230754             5.347500            0            -0.597823    [8[6[1][1][1]][1]]                                          
  H           4.851017             7.570642             4.577961            0             0.402573    [1[8[6]]]                                                   
  H           3.003292             8.738284             4.342669            0             0.031932    [1[6[8][1][1]]]                                             
  H           2.793504             7.932422             5.811546            0             0.031932    [1[6[8][1][1]]]                                             
  H           3.320919             9.639837             5.807513            0             0.031932    [1[6[8][1][1]]]                                             
  C           9.948609             7.295253             3.797879            1             0.099454    [6[8[1]][1][1][1]]                                          
  O           8.533854             7.283289             3.495953            1            -0.597823    [8[6[1][1][1]][1]]                                          
  H           8.251028             8.206076             3.583732            1             0.402573    [1[8[6]]]                                                   
  H           10.303462            6.302159             3.959882            1             0.031932    [1[6[8][1][1]]]                                             
  H           10.491303            7.784051             2.938206            1             0.031932    [1[6[8][1][1]]]                                             
  H           10.231001            7.925730             4.639789            1             0.031932    [1[6[8][1][1]]]                                             
