12

  C          -6.575508             11.139790           -5.753849            0             0.099454    [6[8[1]][1][1][1]]                                          
  O          -5.235632             11.502627           -5.925440            0            -0.597823    [8[6[1][1][1]][1]]                                          
  H          -4.668059             11.114250           -5.220568            0             0.402573    [1[8[6]]]                                                   
  H          -7.180906             12.044242           -5.578026            0             0.031932    [1[6[8][1][1]]]                                             
  H          -6.971407             10.543566           -6.595920            0             0.031932    [1[6[8][1][1]]]                                             
  H          -6.679509             10.539642           -4.838182            0             0.031932    [1[6[8][1][1]]]                                             
  C          -2.802171             8.921985            -4.223362            1             0.099454    [6[8[1]][1][1][1]]                                          
  O          -2.682968             10.191465           -4.918048            1            -0.597823    [8[6[1][1][1]][1]]                                          
  H          -1.840277             10.511214           -4.686150            1             0.402573    [1[8[6]]]                                                   
  H          -2.700391             8.977356            -3.177137            1             0.031932    [1[6[8][1][1]]]                                             
  H          -3.730556             8.386122            -4.466392            1             0.031932    [1[6[8][1][1]]]                                             
  H          -1.986734             8.258888            -4.570737            1             0.031932    [1[6[8][1][1]]]                                             
