12

  C          -0.209073             7.246687             3.659188            0             0.099454    [6[8[1]][1][1][1]]                                          
  O          -1.346885             8.025318             3.141750            0            -0.597823    [8[6[1][1][1]][1]]                                          
  H          -1.003598             8.635182             2.472548            0             0.402573    [1[8[6]]]                                                   
  H           0.609450             7.974867             3.989157            0             0.031932    [1[6[8][1][1]]]                                             
  H          -0.527729             6.725133             4.575650            0             0.031932    [1[6[8][1][1]]]                                             
  H           0.160751             6.566100             2.895262            0             0.031932    [1[6[8][1][1]]]                                             
  C          -1.804028             9.062981            -1.684498            1             0.099454    [6[8[1]][1][1][1]]                                          
  O          -1.185827             8.137430            -0.790392            1            -0.597823    [8[6[1][1][1]][1]]                                          
  H          -0.857489             8.554327             0.021385            1             0.402573    [1[8[6]]]                                                   
  H          -1.514621             8.858486            -2.740619            1             0.031932    [1[6[8][1][1]]]                                             
  H          -2.837264             8.982155            -1.610011            1             0.031932    [1[6[8][1][1]]]                                             
  H          -1.602605             10.074410           -1.308795            1             0.031932    [1[6[8][1][1]]]                                             
