12

  C           8.643484            -10.596535            3.469221            0             0.099454    [6[8[1]][1][1][1]]                                          
  O           8.955716            -10.854942            2.119081            0            -0.597823    [8[6[1][1][1]][1]]                                          
  H           9.117032            -9.999848             1.707795            0             0.402573    [1[8[6]]]                                                   
  H           9.382769            -10.096657            4.085668            0             0.031932    [1[6[8][1][1]]]                                             
  H           7.796566            -9.991265             3.549302            0             0.031932    [1[6[8][1][1]]]                                             
  H           8.301989            -11.458165            3.995973            0             0.031932    [1[6[8][1][1]]]                                             
  C           9.317209            -10.534982           -1.717924            1             0.099454    [6[8[1]][1][1][1]]                                          
  O           9.210696            -9.285179            -2.380809            1            -0.597823    [8[6[1][1][1]][1]]                                          
  H           8.920651            -9.409764            -3.293410            1             0.402573    [1[8[6]]]                                                   
  H           8.353681            -10.771040           -1.223376            1             0.031932    [1[6[8][1][1]]]                                             
  H           9.593112            -11.371253           -2.394576            1             0.031932    [1[6[8][1][1]]]                                             
  H           10.014606           -10.479013           -0.886625            1             0.031932    [1[6[8][1][1]]]                                             
