12

  C          -2.747217            -1.439285             7.215734            0             0.099454    [6[8[1]][1][1][1]]                                          
  O          -3.661565            -2.257749             7.941439            0            -0.597823    [8[6[1][1][1]][1]]                                          
  H          -4.087411            -2.914877             7.304557            0             0.402573    [1[8[6]]]                                                   
  H          -1.744539            -1.863552             7.165893            0             0.031932    [1[6[8][1][1]]]                                             
  H          -3.187766            -1.140830             6.244377            0             0.031932    [1[6[8][1][1]]]                                             
  H          -2.642980            -0.476722             7.720025            0             0.031932    [1[6[8][1][1]]]                                             
  C          -0.382723            -3.622372             4.039118            1             0.099454    [6[8[1]][1][1][1]]                                          
  O          -0.641191            -3.237219             5.349221            1            -0.597823    [8[6[1][1][1]][1]]                                          
  H           0.064387            -2.676951             5.718612            1             0.402573    [1[8[6]]]                                                   
  H          -1.053173            -4.408750             3.598997            1             0.031932    [1[6[8][1][1]]]                                             
  H          -0.480557            -2.756405             3.381245            1             0.031932    [1[6[8][1][1]]]                                             
  H           0.636109            -4.001770             3.918250            1             0.031932    [1[6[8][1][1]]]                                             
