12

  C          -2.961215            -7.884649            -1.258607            0             0.099454    [6[8[1]][1][1][1]]                                          
  O          -3.610688            -7.932195             0.018584            0            -0.597823    [8[6[1][1][1]][1]]                                          
  H          -3.502670            -8.828416             0.334848            0             0.402573    [1[8[6]]]                                                   
  H          -2.254820            -8.680860            -1.353446            0             0.031932    [1[6[8][1][1]]]                                             
  H          -3.686694            -7.831056            -2.107191            0             0.031932    [1[6[8][1][1]]]                                             
  H          -2.356575            -6.985893            -1.346645            0             0.031932    [1[6[8][1][1]]]                                             
  C          -3.557479            -7.362390             3.519988            1             0.099454    [6[8[1]][1][1][1]]                                          
  O          -2.721320            -8.442508             3.756280            1            -0.597823    [8[6[1][1][1]][1]]                                          
  H          -2.822372            -9.065009             3.006001            1             0.402573    [1[8[6]]]                                                   
  H          -3.327990            -6.455389             4.137939            1             0.031932    [1[6[8][1][1]]]                                             
  H          -3.609330            -6.983526             2.487599            1             0.031932    [1[6[8][1][1]]]                                             
  H          -4.582899            -7.558906             3.878854            1             0.031932    [1[6[8][1][1]]]                                             
