12

  C           5.076919            -10.100200           -4.491884            0             0.099454    [6[8[1]][1][1][1]]                                          
  O           4.875564            -8.751591            -4.271763            0            -0.597823    [8[6[1][1][1]][1]]                                          
  H           5.776038            -8.429535            -4.025102            0             0.402573    [1[8[6]]]                                                   
  H           4.079127            -10.597135           -4.605720            0             0.031932    [1[6[8][1][1]]]                                             
  H           5.674618            -10.291725           -5.409982            0             0.031932    [1[6[8][1][1]]]                                             
  H           5.579315            -10.598143           -3.609433            0             0.031932    [1[6[8][1][1]]]                                             
  C           5.872603            -7.265969            -7.790391            1             0.099454    [6[8[1]][1][1][1]]                                          
  O           7.028637            -7.927635            -7.277919            1            -0.597823    [8[6[1][1][1]][1]]                                          
  H           7.342080            -8.513924            -7.926451            1             0.402573    [1[8[6]]]                                                   
  H           6.144789            -6.755487            -8.739153            1             0.031932    [1[6[8][1][1]]]                                             
  H           5.013410            -7.961198            -7.953895            1             0.031932    [1[6[8][1][1]]]                                             
  H           5.525942            -6.520121            -7.110344            1             0.031932    [1[6[8][1][1]]]                                             
