12

  C           7.037910             4.350233            -1.068662            0             0.099454    [6[8[1]][1][1][1]]                                          
  O           6.882477             4.502705            -2.446670            0            -0.597823    [8[6[1][1][1]][1]]                                          
  H           6.461372             5.312291            -2.639708            0             0.402573    [1[8[6]]]                                                   
  H           7.903114             4.916284            -0.669387            0             0.031932    [1[6[8][1][1]]]                                             
  H           6.190942             4.757205            -0.526538            0             0.031932    [1[6[8][1][1]]]                                             
  H           7.196447             3.356597            -0.698366            0             0.031932    [1[6[8][1][1]]]                                             
  C           8.626979             3.603865            -5.592887            1             0.099454    [6[8[1]][1][1][1]]                                          
  O           8.590657             3.069182            -4.253442            1            -0.597823    [8[6[1][1][1]][1]]                                          
  H           7.842469             3.461212            -3.814782            1             0.402573    [1[8[6]]]                                                   
  H           9.557913             3.305639            -6.140538            1             0.031932    [1[6[8][1][1]]]                                             
  H           7.752535             3.206954            -6.147592            1             0.031932    [1[6[8][1][1]]]                                             
  H           8.691890             4.666179            -5.581276            1             0.031932    [1[6[8][1][1]]]                                             
