12

  C          -0.279772             8.880130            -5.984317            0             0.099454    [6[8[1]][1][1][1]]                                          
  O           0.783245             8.630714            -6.886738            0            -0.597823    [8[6[1][1][1]][1]]                                          
  H           0.274807             8.473379            -7.649880            0             0.402573    [1[8[6]]]                                                   
  H          -0.903684             9.718744            -6.263217            0             0.031932    [1[6[8][1][1]]]                                             
  H          -0.970593             8.024726            -5.917269            0             0.031932    [1[6[8][1][1]]]                                             
  H           0.085905             9.093486            -4.943612            0             0.031932    [1[6[8][1][1]]]                                             
  C          -3.398559             9.277242            -8.201790            1             0.099454    [6[8[1]][1][1][1]]                                          
  O          -4.032347             8.859870            -6.981155            1            -0.597823    [8[6[1][1][1]][1]]                                          
  H          -4.233224             9.611003            -6.382598            1             0.402573    [1[8[6]]]                                                   
  H          -2.373946             9.338020            -8.026771            1             0.031932    [1[6[8][1][1]]]                                             
  H          -3.484931             8.505441            -8.993622            1             0.031932    [1[6[8][1][1]]]                                             
  H          -3.785504             10.262232           -8.579061            1             0.031932    [1[6[8][1][1]]]                                             
