12

  C          -6.805916            -6.748151            -5.901701            0             0.099454    [6[8[1]][1][1][1]]                                          
  O          -5.681329            -7.510598            -6.026313            0            -0.597823    [8[6[1][1][1]][1]]                                          
  H          -5.736484            -8.379775            -5.658797            0             0.402573    [1[8[6]]]                                                   
  H          -7.200829            -6.626899            -4.873511            0             0.031932    [1[6[8][1][1]]]                                             
  H          -6.523811            -5.749640            -6.282327            0             0.031932    [1[6[8][1][1]]]                                             
  H          -7.607116            -7.095424            -6.519180            0             0.031932    [1[6[8][1][1]]]                                             
  C          -4.979729            -10.194261           -4.440011            1             0.099454    [6[8[1]][1][1][1]]                                          
  O          -5.876140            -9.334104            -3.722812            1            -0.597823    [8[6[1][1][1]][1]]                                          
  H          -6.502014            -9.896957            -3.232383            1             0.402573    [1[8[6]]]                                                   
  H          -5.545413            -10.929987           -4.978695            1             0.031932    [1[6[8][1][1]]]                                             
  H          -4.345334            -9.696676            -5.161990            1             0.031932    [1[6[8][1][1]]]                                             
  H          -4.367641            -10.707767           -3.673316            1             0.031932    [1[6[8][1][1]]]                                             
