12

  C          -2.553089            -9.341690             7.829840            0             0.099454    [6[8[1]][1][1][1]]                                          
  O          -3.202982            -9.262673             6.528423            0            -0.597823    [8[6[1][1][1]][1]]                                          
  H          -3.995979            -9.807772             6.501171            0             0.402573    [1[8[6]]]                                                   
  H          -1.675079            -8.720392             7.907150            0             0.031932    [1[6[8][1][1]]]                                             
  H          -3.152298            -8.937749             8.646217            0             0.031932    [1[6[8][1][1]]]                                             
  H          -2.217675            -10.345372            8.116701            0             0.031932    [1[6[8][1][1]]]                                             
  C          -4.439394            -5.866600             5.348677            1             0.099454    [6[8[1]][1][1][1]]                                          
  O          -4.186637            -7.062473             6.134142            1            -0.597823    [8[6[1][1][1]][1]]                                          
  H          -3.738023            -6.884358             6.968323            1             0.402573    [1[8[6]]]                                                   
  H          -4.397404            -6.036696             4.230191            1             0.031932    [1[6[8][1][1]]]                                             
  H          -5.435929            -5.555591             5.585817            1             0.031932    [1[6[8][1][1]]]                                             
  H          -3.862727            -4.997880             5.734016            1             0.031932    [1[6[8][1][1]]]                                             
