12

  C           11.122431           -6.628041            -1.890317            0             0.099454    [6[8[1]][1][1][1]]                                          
  O           9.905243            -7.179315            -1.501402            0            -0.597823    [8[6[1][1][1]][1]]                                          
  H           10.068682           -7.746275            -0.749948            0             0.402573    [1[8[6]]]                                                   
  H           10.926274           -6.025471            -2.797524            0             0.031932    [1[6[8][1][1]]]                                             
  H           11.515017           -5.906287            -1.184463            0             0.031932    [1[6[8][1][1]]]                                             
  H           11.829085           -7.345357            -2.185761            0             0.031932    [1[6[8][1][1]]]                                             
  C           6.521235            -10.473203           -2.558362            1             0.099454    [6[8[1]][1][1][1]]                                          
  O           7.817867            -9.902281            -2.639423            1            -0.597823    [8[6[1][1][1]][1]]                                          
  H           7.723384            -8.939568            -2.723572            1             0.402573    [1[8[6]]]                                                   
  H           6.424041            -11.449859           -2.075751            1             0.031932    [1[6[8][1][1]]]                                             
  H           5.769644            -9.834148            -2.145071            1             0.031932    [1[6[8][1][1]]]                                             
  H           6.081220            -10.595940           -3.545507            1             0.031932    [1[6[8][1][1]]]                                             
