12

  C           9.510002             3.753170            -5.325528            0             0.099454    [6[8[1]][1][1][1]]                                          
  O           9.876401             4.225670            -4.068210            0            -0.597823    [8[6[1][1][1]][1]]                                          
  H           10.364098            5.018810            -4.265636            0             0.402573    [1[8[6]]]                                                   
  H           8.978419             2.857762            -5.197583            0             0.031932    [1[6[8][1][1]]]                                             
  H           8.779346             4.325251            -5.874902            0             0.031932    [1[6[8][1][1]]]                                             
  H           10.363160            3.582555            -6.031037            0             0.031932    [1[6[8][1][1]]]                                             
  C           5.319843             0.594491            -4.975979            1             0.099454    [6[8[1]][1][1][1]]                                          
  O           6.404372             1.551814            -5.177278            1            -0.597823    [8[6[1][1][1]][1]]                                          
  H           6.082201             2.384677            -4.757944            1             0.402573    [1[8[6]]]                                                   
  H           5.256007             0.201112            -3.910968            1             0.031932    [1[6[8][1][1]]]                                             
  H           4.395750             1.121554            -5.168776            1             0.031932    [1[6[8][1][1]]]                                             
  H           5.517838            -0.312185            -5.654065            1             0.031932    [1[6[8][1][1]]]                                             
