12

  C           4.599833             1.923888             6.602593            0             0.099454    [6[8[1]][1][1][1]]                                          
  O           3.786116             2.729609             7.484004            0            -0.597823    [8[6[1][1][1]][1]]                                          
  H           3.607876             3.440949             6.897519            0             0.402573    [1[8[6]]]                                                   
  H           5.455821             2.534420             6.223668            0             0.031932    [1[6[8][1][1]]]                                             
  H           5.103900             1.124986             7.097621            0             0.031932    [1[6[8][1][1]]]                                             
  H           4.070648             1.512387             5.743250            0             0.031932    [1[6[8][1][1]]]                                             
  C           0.822627             2.073997             7.005008            1             0.099454    [6[8[1]][1][1][1]]                                          
  O           1.063113             1.717260             8.417392            1            -0.597823    [8[6[1][1][1]][1]]                                          
  H           1.973858             1.958392             8.715179            1             0.402573    [1[8[6]]]                                                   
  H           0.394365             3.062085             6.987075            1             0.031932    [1[6[8][1][1]]]                                             
  H           1.773942             2.144223             6.500203            1             0.031932    [1[6[8][1][1]]]                                             
  H           0.112993             1.379482             6.504855            1             0.031932    [1[6[8][1][1]]]                                             
