12

  C          -6.481891            -7.877271             7.250222            0             0.099454    [6[8[1]][1][1][1]]                                          
  O          -6.198547            -6.565036             6.837370            0            -0.597823    [8[6[1][1][1]][1]]                                          
  H          -6.806889            -6.005382             7.336781            0             0.402573    [1[8[6]]]                                                   
  H          -7.552956            -8.073217             7.112625            0             0.031932    [1[6[8][1][1]]]                                             
  H          -5.784904            -8.580147             6.772301            0             0.031932    [1[6[8][1][1]]]                                             
  H          -6.373916            -7.930089             8.316778            0             0.031932    [1[6[8][1][1]]]                                             
  C          -6.229169            -5.605848             3.649831            1             0.099454    [6[8[1]][1][1][1]]                                          
  O          -6.486129            -5.657773             2.254109            1            -0.597823    [8[6[1][1][1]][1]]                                          
  H          -6.061267            -6.372344             1.832964            1             0.402573    [1[8[6]]]                                                   
  H          -5.270334            -5.238399             3.993347            1             0.031932    [1[6[8][1][1]]]                                             
  H          -7.008296            -5.020978             4.148391            1             0.031932    [1[6[8][1][1]]]                                             
  H          -6.485685            -6.561689             4.106326            1             0.031932    [1[6[8][1][1]]]                                             
