12

  C           5.336748            -10.996211            4.260549            0             0.099454    [6[8[1]][1][1][1]]                                          
  O           5.074167            -11.905412            3.179210            0            -0.597823    [8[6[1][1][1]][1]]                                          
  H           4.188795            -11.588379            2.888647            0             0.402573    [1[8[6]]]                                                   
  H           5.897180            -11.453866            5.076552            0             0.031932    [1[6[8][1][1]]]                                             
  H           5.993802            -10.203456            3.843113            0             0.031932    [1[6[8][1][1]]]                                             
  H           4.420244            -10.644865            4.688939            0             0.031932    [1[6[8][1][1]]]                                             
  C           7.267881            -9.249310             0.379082            1             0.099454    [6[8[1]][1][1][1]]                                          
  O           6.532941            -10.433667            0.124690            1            -0.597823    [8[6[1][1][1]][1]]                                          
  H           5.884201            -10.210428           -0.557404            1             0.402573    [1[8[6]]]                                                   
  H           7.896792            -9.465729             1.292165            1             0.031932    [1[6[8][1][1]]]                                             
  H           8.034743            -9.052904            -0.346697            1             0.031932    [1[6[8][1][1]]]                                             
  H           6.639650            -8.371010             0.421640            1             0.031932    [1[6[8][1][1]]]                                             
