12

  C          -4.944868            -6.379908            -6.736573            0             0.099454    [6[8[1]][1][1][1]]                                          
  O          -6.142319            -5.643729            -6.610150            0            -0.597823    [8[6[1][1][1]][1]]                                          
  H          -6.328640            -5.442620            -7.501184            0             0.402573    [1[8[6]]]                                                   
  H          -4.130525            -5.985907            -6.044649            0             0.031932    [1[6[8][1][1]]]                                             
  H          -5.172011            -7.357734            -6.328079            0             0.031932    [1[6[8][1][1]]]                                             
  H          -4.478197            -6.584611            -7.685240            0             0.031932    [1[6[8][1][1]]]                                             
  C          -2.163569            -4.260200            -5.067871            1             0.099454    [6[8[1]][1][1][1]]                                          
  O          -2.162828            -4.313775            -6.512630            1            -0.597823    [8[6[1][1][1]][1]]                                          
  H          -1.241116            -4.481770            -6.787903            1             0.402573    [1[8[6]]]                                                   
  H          -2.978172            -3.697090            -4.729438            1             0.031932    [1[6[8][1][1]]]                                             
  H          -2.359270            -5.261161            -4.629483            1             0.031932    [1[6[8][1][1]]]                                             
  H          -1.257880            -3.868997            -4.675143            1             0.031932    [1[6[8][1][1]]]                                             
