12

  C          -4.759656            -6.190270            -7.004272            0             0.099454    [6[8[1]][1][1][1]]                                          
  O          -5.347243            -5.966209            -5.743579            0            -0.597823    [8[6[1][1][1]][1]]                                          
  H          -5.784533            -5.115459            -5.833715            0             0.402573    [1[8[6]]]                                                   
  H          -3.736183            -6.582372            -6.809249            0             0.031932    [1[6[8][1][1]]]                                             
  H          -5.362966            -6.858422            -7.595193            0             0.031932    [1[6[8][1][1]]]                                             
  H          -4.840306            -5.280096            -7.597706            0             0.031932    [1[6[8][1][1]]]                                             
  C          -8.079077            -3.785707            -5.508851            1             0.099454    [6[8[1]][1][1][1]]                                          
  O          -6.714691            -3.486116            -5.848100            1            -0.597823    [8[6[1][1][1]][1]]                                          
  H          -6.723623            -2.813161            -6.595883            1             0.402573    [1[8[6]]]                                                   
  H          -8.103429            -4.614727            -4.728990            1             0.031932    [1[6[8][1][1]]]                                             
  H          -8.547174            -2.871966            -5.034462            1             0.031932    [1[6[8][1][1]]]                                             
  H          -8.627026            -4.078073            -6.404288            1             0.031932    [1[6[8][1][1]]]                                             
