12

  C          -5.089564            -6.346030             7.077743            0             0.099454    [6[8[1]][1][1][1]]                                          
  O          -6.465300            -6.133136             6.927184            0            -0.597823    [8[6[1][1][1]][1]]                                          
  H          -6.798112            -5.651534             7.717625            0             0.402573    [1[8[6]]]                                                   
  H          -4.701708            -6.957811             6.244498            0             0.031932    [1[6[8][1][1]]]                                             
  H          -4.549811            -5.454992             7.041897            0             0.031932    [1[6[8][1][1]]]                                             
  H          -4.832682            -6.756922             8.050849            0             0.031932    [1[6[8][1][1]]]                                             
  C          -6.097727            -5.340235             3.404560            1             0.099454    [6[8[1]][1][1][1]]                                          
  O          -6.498002            -6.530726             3.998378            1            -0.597823    [8[6[1][1][1]][1]]                                          
  H          -6.377586            -6.543467             4.952224            1             0.402573    [1[8[6]]]                                                   
  H          -5.046251            -5.086913             3.652144            1             0.031932    [1[6[8][1][1]]]                                             
  H          -6.052630            -5.371745             2.312971            1             0.031932    [1[6[8][1][1]]]                                             
  H          -6.693114            -4.525740             3.737371            1             0.031932    [1[6[8][1][1]]]                                             
