14

C  2.24832000          -0.93760000          -1.13830000         
C  3.48062000          -0.12160000          -0.78045000         
O  3.77196000          -0.28745000           0.55857000         
C  4.82603000           0.31044000           1.17103000         
C  5.05591000           0.08682000           2.63047000         
O  5.59015000           1.02950000           0.54243000         
H  2.01229000          -0.80646000          -2.21534000         
H  1.37913000          -0.59992000          -0.53478000         
H  2.43410000          -2.01443000          -0.93869000         
H  3.28201000           0.95187000          -0.99322000         
H  4.33755000          -0.46651000          -1.39985000         
H  6.05107000          -0.38013000           2.78526000         
H  4.27435000          -0.58438000           3.04475000         
H  5.01810000           1.05784000           3.16721000         
