12

  C           3.842016             6.695679             2.250202            0             0.099454    [6[8[1]][1][1][1]]                                          
  O           2.873278             7.246164             1.343030            0            -0.597823    [8[6[1][1][1]][1]]                                          
  H           3.031708             6.919436             0.425400            0             0.402573    [1[8[6]]]                                                   
  H           3.817862             5.565453             2.173094            0             0.031932    [1[6[8][1][1]]]                                             
  H           4.822762             6.953849             1.878522            0             0.031932    [1[6[8][1][1]]]                                             
  H           3.663193             7.138407             3.241986            0             0.031932    [1[6[8][1][1]]]                                             
  C          -0.209073             7.246687             3.659188            1             0.099454    [6[8[1]][1][1][1]]                                          
  O          -1.346885             8.025318             3.141750            1            -0.597823    [8[6[1][1][1]][1]]                                          
  H          -1.003598             8.635182             2.472548            1             0.402573    [1[8[6]]]                                                   
  H           0.609450             7.974867             3.989157            1             0.031932    [1[6[8][1][1]]]                                             
  H          -0.527729             6.725133             4.575650            1             0.031932    [1[6[8][1][1]]]                                             
  H           0.160751             6.566100             2.895262            1             0.031932    [1[6[8][1][1]]]                                             
