12

  C           0.512501             8.461024            -0.689806            0             0.099454    [6[8[1]][1][1][1]]                                          
  O          -0.712721             7.890156            -0.211231            0            -0.597823    [8[6[1][1][1]][1]]                                          
  H          -0.662369             6.949089            -0.202390            0             0.402573    [1[8[6]]]                                                   
  H           0.578281             8.470859            -1.785892            0             0.031932    [1[6[8][1][1]]]                                             
  H           0.672981             9.551212            -0.568216            0             0.031932    [1[6[8][1][1]]]                                             
  H           1.340160             7.905085            -0.222265            0             0.031932    [1[6[8][1][1]]]                                             
  C          -0.069685             3.844129             0.063434            1             0.099454    [6[8[1]][1][1][1]]                                          
  O          -0.104926             5.211639             0.418285            1            -0.597823    [8[6[1][1][1]][1]]                                          
  H           0.753784             5.502813             0.660447            1             0.402573    [1[8[6]]]                                                   
  H          -0.962979             3.347517            -0.377816            1             0.031932    [1[6[8][1][1]]]                                             
  H           0.827611             3.554464            -0.528559            1             0.031932    [1[6[8][1][1]]]                                             
  H           0.022119             3.317603             0.991936            1             0.031932    [1[6[8][1][1]]]                                             
