12

  C          -4.441860             0.252273            -10.388572           0             0.099454    [6[8[1]][1][1][1]]                                          
  O          -5.831980             0.272758            -10.110588           0            -0.597823    [8[6[1][1][1]][1]]                                          
  H          -6.199616             0.251479            -11.006176           0             0.402573    [1[8[6]]]                                                   
  H          -4.139284             1.101493            -11.007962           0             0.031932    [1[6[8][1][1]]]                                             
  H          -3.881177             0.211888            -9.421861            0             0.031932    [1[6[8][1][1]]]                                             
  H          -4.225145            -0.703041            -10.844103           0             0.031932    [1[6[8][1][1]]]                                             
  C          -8.511850            -0.963525            -8.511419            1             0.099454    [6[8[1]][1][1][1]]                                          
  O          -7.419741            -0.358722            -7.879378            1            -0.597823    [8[6[1][1][1]][1]]                                          
  H          -6.722054            -0.542908            -8.465725            1             0.402573    [1[8[6]]]                                                   
  H          -8.506354            -2.102621            -8.689913            1             0.031932    [1[6[8][1][1]]]                                             
  H          -9.434446            -0.754104            -8.016659            1             0.031932    [1[6[8][1][1]]]                                             
  H          -8.626261            -0.625500            -9.523608            1             0.031932    [1[6[8][1][1]]]                                             
