12

  C           0.989700             0.103803             9.865704            0             0.099454    [6[8[1]][1][1][1]]                                          
  O           1.265327             0.630240             11.214209           0            -0.597823    [8[6[1][1][1]][1]]                                          
  H           0.451374             1.012931             11.587193           0             0.402573    [1[8[6]]]                                                   
  H           0.426579            -0.844866             9.908428            0             0.031932    [1[6[8][1][1]]]                                             
  H           0.413281             0.719244             9.217680            0             0.031932    [1[6[8][1][1]]]                                             
  H           1.945017            -0.202523             9.432650            0             0.031932    [1[6[8][1][1]]]                                             
  C           0.950948            -3.319941             8.340230            1             0.099454    [6[8[1]][1][1][1]]                                          
  O           1.689084            -4.526680             8.530754            1            -0.597823    [8[6[1][1][1]][1]]                                          
  H           1.756726            -4.672052             9.437307            1             0.402573    [1[8[6]]]                                                   
  H           0.546774            -3.197701             7.363918            1             0.031932    [1[6[8][1][1]]]                                             
  H           0.064719            -3.277361             8.944016            1             0.031932    [1[6[8][1][1]]]                                             
  H           1.442575            -2.422004             8.557518            1             0.031932    [1[6[8][1][1]]]                                             
