12

  C          -10.731025            2.823541            -1.194444            0             0.099454    [6[8[1]][1][1][1]]                                          
  O          -10.503371            3.750135            -0.081358            0            -0.597823    [8[6[1][1][1]][1]]                                          
  H          -9.717192             3.611297             0.489731            0             0.402573    [1[8[6]]]                                                   
  H          -10.037854            3.038673            -2.059465            0             0.031932    [1[6[8][1][1]]]                                             
  H          -10.587128            1.762189            -0.946121            0             0.031932    [1[6[8][1][1]]]                                             
  H          -11.729911            2.863897            -1.670803            0             0.031932    [1[6[8][1][1]]]                                             
  C          -8.472294             3.276618             2.963026            1             0.099454    [6[8[1]][1][1][1]]                                          
  O          -8.874615             4.466576             2.332064            1            -0.597823    [8[6[1][1][1]][1]]                                          
  H          -9.666525             4.905344             2.803990            1             0.402573    [1[8[6]]]                                                   
  H          -7.813810             2.746300             2.298224            1             0.031932    [1[6[8][1][1]]]                                             
  H          -7.828834             3.420674             3.829183            1             0.031932    [1[6[8][1][1]]]                                             
  H          -9.259429             2.586746             3.223176            1             0.031932    [1[6[8][1][1]]]                                             
