12

  C           4.420336            -3.631376             1.742753            0             0.099454    [6[8[1]][1][1][1]]                                          
  O           3.162538            -4.207617             1.389367            0            -0.597823    [8[6[1][1][1]][1]]                                          
  H           2.908502            -4.657569             2.203867            0             0.402573    [1[8[6]]]                                                   
  H           4.810058            -2.966194             0.971924            0             0.031932    [1[6[8][1][1]]]                                             
  H           4.419981            -3.156620             2.638260            0             0.031932    [1[6[8][1][1]]]                                             
  H           5.257324            -4.385752             1.882703            0             0.031932    [1[6[8][1][1]]]                                             
  C           3.467180             1.393242             0.592832            1             0.099454    [6[8[1]][1][1][1]]                                          
  O           3.199770             2.200727            -0.571443            1            -0.597823    [8[6[1][1][1]][1]]                                          
  H           2.595145             1.775491            -1.163679            1             0.402573    [1[8[6]]]                                                   
  H           3.979197             0.438904             0.292025            1             0.031932    [1[6[8][1][1]]]                                             
  H           4.181762             1.851568             1.262663            1             0.031932    [1[6[8][1][1]]]                                             
  H           2.615667             1.283709             1.299601            1             0.031932    [1[6[8][1][1]]]                                             
