12

  C           0.580645             0.836161             0.247344            0             0.099454    [6[8[1]][1][1][1]]                                          
  O           1.005558             0.186530            -0.967895            0            -0.597823    [8[6[1][1][1]][1]]                                          
  H           0.387211            -0.525010            -1.153475            0             0.402573    [1[8[6]]]                                                   
  H           0.264405             0.089236             0.943966            0             0.031932    [1[6[8][1][1]]]                                             
  H           1.336191             1.459964             0.762796            0             0.031932    [1[6[8][1][1]]]                                             
  H          -0.256012             1.497963             0.130937            0             0.031932    [1[6[8][1][1]]]                                             
  C           0.745206            -3.975291            -0.579764            1             0.099454    [6[8[1]][1][1][1]]                                          
  O           0.307130            -2.700104            -0.591971            1            -0.597823    [8[6[1][1][1]][1]]                                          
  H           0.261849            -2.321639             0.278129            1             0.402573    [1[8[6]]]                                                   
  H           1.456053            -4.077456             0.239534            1             0.031932    [1[6[8][1][1]]]                                             
  H          -0.000700            -4.631247            -0.176744            1             0.031932    [1[6[8][1][1]]]                                             
  H           1.118313            -4.411004            -1.534896            1             0.031932    [1[6[8][1][1]]]                                             
