12

  C           5.018682             3.647154             2.266529            0             0.099454    [6[8[1]][1][1][1]]                                          
  O           4.344760             3.389571             1.100863            0            -0.597823    [8[6[1][1][1]][1]]                                          
  H           3.404297             3.200617             1.319677            0             0.402573    [1[8[6]]]                                                   
  H           5.043372             2.728457             2.908457            0             0.031932    [1[6[8][1][1]]]                                             
  H           6.070344             3.937796             2.139085            0             0.031932    [1[6[8][1][1]]]                                             
  H           4.514807             4.440137             2.832299            0             0.031932    [1[6[8][1][1]]]                                             
  C           6.548716             3.582981            -1.459141            1             0.099454    [6[8[1]][1][1][1]]                                          
  O           6.030611             4.675191            -0.691960            1            -0.597823    [8[6[1][1][1]][1]]                                          
  H           5.401583             4.328642            -0.100118            1             0.402573    [1[8[6]]]                                                   
  H           5.678680             3.056206            -1.977759            1             0.031932    [1[6[8][1][1]]]                                             
  H           7.278851             3.904338            -2.254749            1             0.031932    [1[6[8][1][1]]]                                             
  H           7.220410             2.875857            -1.003596            1             0.031932    [1[6[8][1][1]]]                                             
