12

  C           7.325339             5.251497             0.133177            0             0.099454    [6[8[1]][1][1][1]]                                          
  O           6.504811             4.108082             0.081789            0            -0.597823    [8[6[1][1][1]][1]]                                          
  H           5.631289             4.365463            -0.281375            0             0.402573    [1[8[6]]]                                                   
  H           8.367817             5.088402             0.117534            0             0.031932    [1[6[8][1][1]]]                                             
  H           7.009722             5.937494            -0.695289            0             0.031932    [1[6[8][1][1]]]                                             
  H           6.979847             5.774637             1.076056            0             0.031932    [1[6[8][1][1]]]                                             
  C           6.432539             1.573066             2.084114            1             0.099454    [6[8[1]][1][1][1]]                                          
  O           6.031638             2.885209             2.530038            1            -0.597823    [8[6[1][1][1]][1]]                                          
  H           5.766672             3.462999             1.764961            1             0.402573    [1[8[6]]]                                                   
  H           7.336730             1.598345             1.367785            1             0.031932    [1[6[8][1][1]]]                                             
  H           6.681411             0.854883             2.840152            1             0.031932    [1[6[8][1][1]]]                                             
  H           5.621836             1.199433             1.360271            1             0.031932    [1[6[8][1][1]]]                                             
