12

  C           0.395747             0.499302             3.166637            0             0.099454    [6[8[1]][1][1][1]]                                          
  O          -0.741435             1.109411             2.820772            0            -0.597823    [8[6[1][1][1]][1]]                                          
  H          -1.443136             0.800324             3.428644            0             0.402573    [1[8[6]]]                                                   
  H           0.572906             0.753819             4.234277            0             0.031932    [1[6[8][1][1]]]                                             
  H           0.320529            -0.597235             3.056164            0             0.031932    [1[6[8][1][1]]]                                             
  H           1.203881             0.845296             2.442496            0             0.031932    [1[6[8][1][1]]]                                             
  C           5.256442             3.173701             4.330914            1             0.099454    [6[8[1]][1][1][1]]                                          
  O           5.647779             3.333847             5.672779            1            -0.597823    [8[6[1][1][1]][1]]                                          
  H           4.899699             3.045901             6.165063            1             0.402573    [1[8[6]]]                                                   
  H           5.243303             4.136426             3.826357            1             0.031932    [1[6[8][1][1]]]                                             
  H           5.965825             2.565790             3.787552            1             0.031932    [1[6[8][1][1]]]                                             
  H           4.380051             2.629932             4.138270            1             0.031932    [1[6[8][1][1]]]                                             
