12

  C          -3.510231            -1.086601            -3.537600            0             0.099454    [6[8[1]][1][1][1]]                                          
  O          -4.343705            -1.752611            -4.437602            0            -0.597823    [8[6[1][1][1]][1]]                                          
  H          -5.224240            -1.403687            -4.477860            0             0.402573    [1[8[6]]]                                                   
  H          -4.049414            -0.835512            -2.615135            0             0.031932    [1[6[8][1][1]]]                                             
  H          -2.571821            -1.682410            -3.278911            0             0.031932    [1[6[8][1][1]]]                                             
  H          -3.190376            -0.068218            -3.952758            0             0.031932    [1[6[8][1][1]]]                                             
  C          -0.129809            -3.981997            -1.892115            1             0.099454    [6[8[1]][1][1][1]]                                          
  O           0.402196            -3.215885            -0.827790            1            -0.597823    [8[6[1][1][1]][1]]                                          
  H           0.200411            -3.568113             0.056737            1             0.402573    [1[8[6]]]                                                   
  H          -0.677656            -3.346531            -2.575738            1             0.031932    [1[6[8][1][1]]]                                             
  H           0.677087            -4.486422            -2.377197            1             0.031932    [1[6[8][1][1]]]                                             
  H          -0.876734            -4.661249            -1.505775            1             0.031932    [1[6[8][1][1]]]                                             
