12

  C          -6.562551            -9.594440            -0.983579            0             0.099454    [6[8[1]][1][1][1]]                                          
  O          -7.015849            -9.670442             0.292974            0            -0.597823    [8[6[1][1][1]][1]]                                          
  H          -6.502563            -9.019146             0.782750            0             0.402573    [1[8[6]]]                                                   
  H          -5.468592            -9.857157            -1.010024            0             0.031932    [1[6[8][1][1]]]                                             
  H          -7.115819            -10.191508           -1.692347            0             0.031932    [1[6[8][1][1]]]                                             
  H          -6.727303            -8.508277            -1.277775            0             0.031932    [1[6[8][1][1]]]                                             
  C          -6.297636            -7.574919             2.797073            1             0.099454    [6[8[1]][1][1][1]]                                          
  O          -5.436312            -7.788280             1.702356            1            -0.597823    [8[6[1][1][1]][1]]                                          
  H          -5.218978            -6.945528             1.226079            1             0.402573    [1[8[6]]]                                                   
  H          -6.017857            -8.267462             3.586633            1             0.031932    [1[6[8][1][1]]]                                             
  H          -6.148262            -6.533509             3.099142            1             0.031932    [1[6[8][1][1]]]                                             
  H          -7.355991            -7.711219             2.511567            1             0.031932    [1[6[8][1][1]]]                                             
