12

  C          -3.307224            -8.265760            -8.116430            0             0.099454    [6[8[1]][1][1][1]]                                          
  O          -2.245746            -8.230731            -7.104452            0            -0.597823    [8[6[1][1][1]][1]]                                          
  H          -2.675553            -8.615451            -6.387941            0             0.402573    [1[8[6]]]                                                   
  H          -3.365377            -9.278434            -8.597574            0             0.031932    [1[6[8][1][1]]]                                             
  H          -4.354667            -8.109546            -7.761746            0             0.031932    [1[6[8][1][1]]]                                             
  H          -3.089242            -7.494867            -8.978860            0             0.031932    [1[6[8][1][1]]]                                             
  C           1.991377            -8.790628            -5.001181            1             0.099454    [6[8[1]][1][1][1]]                                          
  O           1.083438            -9.922957            -4.983898            1            -0.597823    [8[6[1][1][1]][1]]                                          
  H           1.557462            -10.720434           -4.807969            1             0.402573    [1[8[6]]]                                                   
  H           1.465229            -7.924488            -5.489104            1             0.031932    [1[6[8][1][1]]]                                             
  H           2.321714            -8.437069            -4.029758            1             0.031932    [1[6[8][1][1]]]                                             
  H           2.848123            -8.985034            -5.668499            1             0.031932    [1[6[8][1][1]]]                                             
