12

  C           1.559900            -2.722183            -4.387843            0             0.099454    [6[8[1]][1][1][1]]                                          
  O           1.024097            -3.110512            -3.120615            0            -0.597823    [8[6[1][1][1]][1]]                                          
  H           0.241665            -2.671256            -2.909754            0             0.402573    [1[8[6]]]                                                   
  H           2.034390            -3.613840            -4.841094            0             0.031932    [1[6[8][1][1]]]                                             
  H           0.813583            -2.312463            -5.113704            0             0.031932    [1[6[8][1][1]]]                                             
  H           2.363234            -2.014412            -4.232848            0             0.031932    [1[6[8][1][1]]]                                             
  C           3.949247            -5.063685            -2.075325            1             0.099454    [6[8[1]][1][1][1]]                                          
  O           3.851596            -3.781010            -1.452229            1            -0.597823    [8[6[1][1][1]][1]]                                          
  H           4.393191            -3.186122            -1.967115            1             0.402573    [1[8[6]]]                                                   
  H           3.015160            -5.583303            -2.177818            1             0.031932    [1[6[8][1][1]]]                                             
  H           4.433456            -5.015239            -3.024332            1             0.031932    [1[6[8][1][1]]]                                             
  H           4.566095            -5.591695            -1.365824            1             0.031932    [1[6[8][1][1]]]                                             
