12

  C          -5.024703            -0.475523            -9.681912            0             0.099454    [6[8[1]][1][1][1]]                                          
  O          -5.610899            -0.556094            -8.404248            0            -0.597823    [8[6[1][1][1]][1]]                                          
  H          -6.295084             0.138355            -8.425728            0             0.402573    [1[8[6]]]                                                   
  H          -5.727918            -0.348094            -10.497416           0             0.031932    [1[6[8][1][1]]]                                             
  H          -4.225119             0.281107            -9.772922            0             0.031932    [1[6[8][1][1]]]                                             
  H          -4.465926            -1.431594            -9.972453            0             0.031932    [1[6[8][1][1]]]                                             
  C          -3.647202             1.400535            -4.744171            1             0.099454    [6[8[1]][1][1][1]]                                          
  O          -3.561103             1.011767            -6.071241            1            -0.597823    [8[6[1][1][1]][1]]                                          
  H          -4.257948             1.401585            -6.564534            1             0.402573    [1[8[6]]]                                                   
  H          -2.627047             1.345191            -4.311513            1             0.031932    [1[6[8][1][1]]]                                             
  H          -4.008193             2.395758            -4.440256            1             0.031932    [1[6[8][1][1]]]                                             
  H          -4.149570             0.626464            -4.100258            1             0.031932    [1[6[8][1][1]]]                                             
