12

  C          -4.658780            -2.037883             7.649658            0             0.099454    [6[8[1]][1][1][1]]                                          
  O          -5.337638            -1.572166             6.540238            0            -0.597823    [8[6[1][1][1]][1]]                                          
  H          -6.235660            -1.469603             6.901389            0             0.402573    [1[8[6]]]                                                   
  H          -3.612432            -1.652803             7.614765            0             0.031932    [1[6[8][1][1]]]                                             
  H          -5.188026            -1.588476             8.460927            0             0.031932    [1[6[8][1][1]]]                                             
  H          -4.629709            -3.094023             7.716798            0             0.031932    [1[6[8][1][1]]]                                             
  C          -7.007349            -1.144649             3.500469            1             0.099454    [6[8[1]][1][1][1]]                                          
  O          -8.062539            -2.026212             3.825962            1            -0.597823    [8[6[1][1][1]][1]]                                          
  H          -8.047566            -2.332672             4.734233            1             0.402573    [1[8[6]]]                                                   
  H          -7.376395            -0.294412             2.890347            1             0.031932    [1[6[8][1][1]]]                                             
  H          -6.574996            -0.687482             4.454638            1             0.031932    [1[6[8][1][1]]]                                             
  H          -6.225119            -1.631320             2.828627            1             0.031932    [1[6[8][1][1]]]                                             
