8

Cl  0.88986000          -0.04207000           0.13537000         
C  2.66784000           0.00044000          -0.04460000         
Cl  3.19530000          -1.55832000          -0.74275000         
C  3.12869000           1.19616000          -0.89909000         
Cl  4.90911000           1.22273000          -1.02066000         
Cl  2.44985000           1.12447000          -2.55033000         
Cl  2.61890000           2.73108000          -0.14449000         
H  3.11046000           0.08530000           0.97066000         
