12

  C           3.428928             8.666497             5.285069            0             0.099454    [6[8[1]][1][1][1]]                                          
  O           4.762131             8.230754             5.347500            0            -0.597823    [8[6[1][1][1]][1]]                                          
  H           4.851017             7.570642             4.577961            0             0.402573    [1[8[6]]]                                                   
  H           3.003292             8.738284             4.342669            0             0.031932    [1[6[8][1][1]]]                                             
  H           2.793504             7.932422             5.811546            0             0.031932    [1[6[8][1][1]]]                                             
  H           3.320919             9.639837             5.807513            0             0.031932    [1[6[8][1][1]]]                                             
  C           0.924028             6.358187             6.757414            1             0.099454    [6[8[1]][1][1][1]]                                          
  O          -0.283134             5.796647             7.272671            1            -0.597823    [8[6[1][1][1]][1]]                                          
  H          -0.027440             4.888892             7.336648            1             0.402573    [1[8[6]]]                                                   
  H           1.716125             5.680179             6.964693            1             0.031932    [1[6[8][1][1]]]                                             
  H           0.937912             6.474491             5.673382            1             0.031932    [1[6[8][1][1]]]                                             
  H           1.113307             7.414383             7.211056            1             0.031932    [1[6[8][1][1]]]                                             
