12

  C          -8.741298             2.011350            -3.240860            0             0.099454    [6[8[1]][1][1][1]]                                          
  O          -9.621524             0.943779            -3.563059            0            -0.597823    [8[6[1][1][1]][1]]                                          
  H          -9.309505             0.156833            -3.162644            0             0.402573    [1[8[6]]]                                                   
  H          -9.085731             2.993607            -3.654103            0             0.031932    [1[6[8][1][1]]]                                             
  H          -8.600028             2.141304            -2.154189            0             0.031932    [1[6[8][1][1]]]                                             
  H          -7.868140             1.741703            -3.848083            0             0.031932    [1[6[8][1][1]]]                                             
  C          -4.432749            -0.665005            -4.183704            1             0.099454    [6[8[1]][1][1][1]]                                          
  O          -5.511980            -0.222480            -3.434438            1            -0.597823    [8[6[1][1][1]][1]]                                          
  H          -5.248983             0.389718            -2.720610            1             0.402573    [1[8[6]]]                                                   
  H          -4.629903            -0.997595            -5.147036            1             0.031932    [1[6[8][1][1]]]                                             
  H          -3.745433             0.176684            -4.392793            1             0.031932    [1[6[8][1][1]]]                                             
  H          -3.865923            -1.420292            -3.627078            1             0.031932    [1[6[8][1][1]]]                                             
