12

  C           4.010603            -3.531085            -6.215756            0             0.099454    [6[8[1]][1][1][1]]                                          
  O           4.091302            -4.986165            -6.041362            0            -0.597823    [8[6[1][1][1]][1]]                                          
  H           4.959154            -5.245191            -5.658056            0             0.402573    [1[8[6]]]                                                   
  H           3.124131            -3.367573            -6.796884            0             0.031932    [1[6[8][1][1]]]                                             
  H           3.952099            -2.997035            -5.248406            0             0.031932    [1[6[8][1][1]]]                                             
  H           4.785231            -3.048308            -6.736867            0             0.031932    [1[6[8][1][1]]]                                             
  C           6.653464            -6.406812            -3.520357            1             0.099454    [6[8[1]][1][1][1]]                                          
  O           6.886541            -5.325754            -4.405372            1            -0.597823    [8[6[1][1][1]][1]]                                          
  H           7.348178            -4.703357            -3.858006            1             0.402573    [1[8[6]]]                                                   
  H           6.387846            -7.279987            -4.088439            1             0.031932    [1[6[8][1][1]]]                                             
  H           7.540144            -6.632166            -2.917996            1             0.031932    [1[6[8][1][1]]]                                             
  H           5.851907            -6.189772            -2.805827            1             0.031932    [1[6[8][1][1]]]                                             
