12

  C          -2.564663            -10.829491            0.819036            0             0.099454    [6[8[1]][1][1][1]]                                          
  O          -1.332082            -11.025152            1.444712            0            -0.597823    [8[6[1][1][1]][1]]                                          
  H          -1.579110            -11.609815            2.161669            0             0.402573    [1[8[6]]]                                                   
  H          -2.334350            -10.176657           -0.055430            0             0.031932    [1[6[8][1][1]]]                                             
  H          -2.996839            -11.752730            0.453297            0             0.031932    [1[6[8][1][1]]]                                             
  H          -3.253794            -10.236978            1.399588            0             0.031932    [1[6[8][1][1]]]                                             
  C          -2.402393            -10.278773           -3.280738            1             0.099454    [6[8[1]][1][1][1]]                                          
  O          -1.721454            -10.813631           -4.440282            1            -0.597823    [8[6[1][1][1]][1]]                                          
  H          -2.355756            -11.155104           -5.064941            1             0.402573    [1[8[6]]]                                                   
  H          -1.851665            -10.416140           -2.347565            1             0.031932    [1[6[8][1][1]]]                                             
  H          -2.501331            -9.212577            -3.385509            1             0.031932    [1[6[8][1][1]]]                                             
  H          -3.410301            -10.670817           -3.273811            1             0.031932    [1[6[8][1][1]]]                                             
