12

  C           5.890683            -3.792645            -3.899730            0             0.099454    [6[8[1]][1][1][1]]                                          
  O           7.139683            -3.398593            -4.503209            0            -0.597823    [8[6[1][1][1]][1]]                                          
  H           7.846260            -3.774391            -3.995121            0             0.402573    [1[8[6]]]                                                   
  H           5.910107            -3.919907            -2.837656            0             0.031932    [1[6[8][1][1]]]                                             
  H           5.013322            -3.162493            -3.961290            0             0.031932    [1[6[8][1][1]]]                                             
  H           5.576193            -4.798254            -4.168236            0             0.031932    [1[6[8][1][1]]]                                             
  C           7.901909             0.421615            -1.397861            1             0.099454    [6[8[1]][1][1][1]]                                          
  O           8.388678            -0.903477            -1.645681            1            -0.597823    [8[6[1][1][1]][1]]                                          
  H           8.347794            -1.011711            -2.624478            1             0.402573    [1[8[6]]]                                                   
  H           6.789285             0.488096            -1.529645            1             0.031932    [1[6[8][1][1]]]                                             
  H           8.017625             0.587816            -0.284820            1             0.031932    [1[6[8][1][1]]]                                             
  H           8.198702             1.272218            -2.006417            1             0.031932    [1[6[8][1][1]]]                                             
