12

  C          -5.195719            -0.427144             9.365506            0             0.099454    [6[8[1]][1][1][1]]                                          
  O          -6.124433            -1.080566             10.163934           0            -0.597823    [8[6[1][1][1]][1]]                                          
  H          -6.539004            -1.747450             9.631112            0             0.402573    [1[8[6]]]                                                   
  H          -5.596017            -0.049719             8.423426            0             0.031932    [1[6[8][1][1]]]                                             
  H          -4.831508             0.366167             9.977338            0             0.031932    [1[6[8][1][1]]]                                             
  H          -4.342301            -1.112926             9.156067            0             0.031932    [1[6[8][1][1]]]                                             
  C          -0.275978            -1.399052             9.199394            1             0.099454    [6[8[1]][1][1][1]]                                          
  O          -0.958128            -2.355190             10.019750           1            -0.597823    [8[6[1][1][1]][1]]                                          
  H          -0.339695            -3.022243             10.280683           1             0.402573    [1[8[6]]]                                                   
  H          -0.951116            -1.011180             8.357782            1             0.031932    [1[6[8][1][1]]]                                             
  H           0.011920            -0.481083             9.730996            1             0.031932    [1[6[8][1][1]]]                                             
  H           0.554783            -1.852173             8.677638            1             0.031932    [1[6[8][1][1]]]                                             
