12

  C          -4.390305            -7.853721            -8.340512            0             0.099454    [6[8[1]][1][1][1]]                                          
  O          -3.239923            -7.533643            -7.534374            0            -0.597823    [8[6[1][1][1]][1]]                                          
  H          -3.454352            -6.886440            -6.874207            0             0.402573    [1[8[6]]]                                                   
  H          -4.282908            -8.754104            -8.899500            0             0.031932    [1[6[8][1][1]]]                                             
  H          -5.215125            -8.003807            -7.642085            0             0.031932    [1[6[8][1][1]]]                                             
  H          -4.738968            -7.005567            -9.008015            0             0.031932    [1[6[8][1][1]]]                                             
  C           1.133517            -8.147447            -8.000697            1             0.099454    [6[8[1]][1][1][1]]                                          
  O           0.016639            -8.043199            -7.114052            1            -0.597823    [8[6[1][1][1]][1]]                                          
  H          -0.528439            -7.307788            -7.373907            1             0.402573    [1[8[6]]]                                                   
  H           0.753661            -8.090303            -9.044656            1             0.031932    [1[6[8][1][1]]]                                             
  H           1.848554            -7.316792            -7.822672            1             0.031932    [1[6[8][1][1]]]                                             
  H           1.715743            -9.115010            -7.891691            1             0.031932    [1[6[8][1][1]]]                                             
