12

  C           10.107105           -5.583094             0.898709            0             0.099454    [6[8[1]][1][1][1]]                                          
  O           9.277626            -4.510390             1.399296            0            -0.597823    [8[6[1][1][1]][1]]                                          
  H           9.836118            -3.927165             1.959038            0             0.402573    [1[8[6]]]                                                   
  H           11.109694           -5.474125             1.303897            0             0.031932    [1[6[8][1][1]]]                                             
  H           9.825191            -6.604012             1.214564            0             0.031932    [1[6[8][1][1]]]                                             
  H           10.273370           -5.608392            -0.218637            0             0.031932    [1[6[8][1][1]]]                                             
  C           6.240257            -3.486396             0.328244            1             0.099454    [6[8[1]][1][1][1]]                                          
  O           7.407682            -3.671008            -0.383972            1            -0.597823    [8[6[1][1][1]][1]]                                          
  H           7.952128            -4.335552            -0.003175            1             0.402573    [1[8[6]]]                                                   
  H           6.224370            -4.059562             1.284200            1             0.031932    [1[6[8][1][1]]]                                             
  H           6.097100            -2.413471             0.559097            1             0.031932    [1[6[8][1][1]]]                                             
  H           5.374843            -3.919506            -0.240133            1             0.031932    [1[6[8][1][1]]]                                             
