12

  C           2.228465             3.519173             4.443829            0             0.099454    [6[8[1]][1][1][1]]                                          
  O           3.320479             2.858309             5.078403            0            -0.597823    [8[6[1][1][1]][1]]                                          
  H           4.130458             3.343269             4.846252            0             0.402573    [1[8[6]]]                                                   
  H           2.522161             3.844523             3.450730            0             0.031932    [1[6[8][1][1]]]                                             
  H           1.422132             2.903265             4.368014            0             0.031932    [1[6[8][1][1]]]                                             
  H           1.893552             4.378098             4.980760            0             0.031932    [1[6[8][1][1]]]                                             
  C           4.331359             3.746377             1.493355            1             0.099454    [6[8[1]][1][1][1]]                                          
  O           4.162242             5.019234             2.100119            1            -0.597823    [8[6[1][1][1]][1]]                                          
  H           4.643756             5.060123             2.951238            1             0.402573    [1[8[6]]]                                                   
  H           3.428837             3.307980             1.033165            1             0.031932    [1[6[8][1][1]]]                                             
  H           5.152220             3.725037             0.727727            1             0.031932    [1[6[8][1][1]]]                                             
  H           4.740385             3.024724             2.196490            1             0.031932    [1[6[8][1][1]]]                                             
