12

  C           1.367923            -6.330460            -10.176826           0             0.099454    [6[8[1]][1][1][1]]                                          
  O           0.599920            -7.321826            -10.790082           0            -0.597823    [8[6[1][1][1]][1]]                                          
  H          -0.023357            -7.777559            -10.239975           0             0.402573    [1[8[6]]]                                                   
  H           2.408693            -6.273177            -10.548830           0             0.031932    [1[6[8][1][1]]]                                             
  H           1.022412            -5.304323            -10.160422           0             0.031932    [1[6[8][1][1]]]                                             
  H           1.565223            -6.564865            -9.102206            0             0.031932    [1[6[8][1][1]]]                                             
  C          -1.628526            -10.375005           -9.102687            1             0.099454    [6[8[1]][1][1][1]]                                          
  O          -1.132023            -9.083415            -9.327182            1            -0.597823    [8[6[1][1][1]][1]]                                          
  H          -1.163365            -8.582984            -8.526550            1             0.402573    [1[8[6]]]                                                   
  H          -2.603047            -10.197544           -8.616572            1             0.031932    [1[6[8][1][1]]]                                             
  H          -1.761198            -10.908630           -10.061052           1             0.031932    [1[6[8][1][1]]]                                             
  H          -0.896033            -10.918688           -8.564937            1             0.031932    [1[6[8][1][1]]]                                             
