12

  C           4.455608            -11.126271           -8.418548            0             0.099454    [6[8[1]][1][1][1]]                                          
  O           4.524287            -9.968063            -7.603554            0            -0.597823    [8[6[1][1][1]][1]]                                          
  H           5.473500            -9.705386            -7.684851            0             0.402573    [1[8[6]]]                                                   
  H           4.463304            -10.877644           -9.503529            0             0.031932    [1[6[8][1][1]]]                                             
  H           5.219588            -11.831956           -8.257477            0             0.031932    [1[6[8][1][1]]]                                             
  H           3.472252            -11.506724           -8.212606            0             0.031932    [1[6[8][1][1]]]                                             
  C           2.757700            -6.980673            -8.181021            1             0.099454    [6[8[1]][1][1][1]]                                          
  O           2.189377            -8.202132            -7.664982            1            -0.597823    [8[6[1][1][1]][1]]                                          
  H           2.983104            -8.758184            -7.725552            1             0.402573    [1[8[6]]]                                                   
  H           1.987597            -6.160948            -8.253499            1             0.031932    [1[6[8][1][1]]]                                             
  H           3.640232            -6.587683            -7.735363            1             0.031932    [1[6[8][1][1]]]                                             
  H           3.130045            -7.106031            -9.263096            1             0.031932    [1[6[8][1][1]]]                                             
