12

  C           9.897088            -6.106647            -1.344404            0             0.099454    [6[8[1]][1][1][1]]                                          
  O           8.894205            -6.210218            -0.357511            0            -0.597823    [8[6[1][1][1]][1]]                                          
  H           8.365926            -5.424265            -0.546781            0             0.402573    [1[8[6]]]                                                   
  H           9.837343            -6.958201            -2.012444            0             0.031932    [1[6[8][1][1]]]                                             
  H           9.795360            -5.159881            -1.911323            0             0.031932    [1[6[8][1][1]]]                                             
  H           10.927268           -6.047717            -0.936030            0             0.031932    [1[6[8][1][1]]]                                             
  C           4.888690            -4.280673            -0.142843            1             0.099454    [6[8[1]][1][1][1]]                                          
  O           5.918625            -5.159940            -0.551634            1            -0.597823    [8[6[1][1][1]][1]]                                          
  H           6.279421            -5.554795             0.254138            1             0.402573    [1[8[6]]]                                                   
  H           3.938232            -4.705192            -0.474654            1             0.031932    [1[6[8][1][1]]]                                             
  H           4.930186            -4.239766             0.953528            1             0.031932    [1[6[8][1][1]]]                                             
  H           5.005893            -3.193100            -0.442598            1             0.031932    [1[6[8][1][1]]]                                             
