12

  C          -3.435710             10.324235            1.939552            0             0.099454    [6[8[1]][1][1][1]]                                          
  O          -3.963342             9.668011             0.767450            0            -0.597823    [8[6[1][1][1]][1]]                                          
  H          -3.207545             9.471691             0.170943            0             0.402573    [1[8[6]]]                                                   
  H          -3.833382             9.944569             2.858912            0             0.031932    [1[6[8][1][1]]]                                             
  H          -2.375822             10.071224            2.080466            0             0.031932    [1[6[8][1][1]]]                                             
  H          -3.681451             11.376608            2.054490            0             0.031932    [1[6[8][1][1]]]                                             
  C          -5.698905             6.472710            -0.050581            1             0.099454    [6[8[1]][1][1][1]]                                          
  O          -6.167140             7.758519            -0.349432            1            -0.597823    [8[6[1][1][1]][1]]                                          
  H          -5.604538             8.434394             0.014177            1             0.402573    [1[8[6]]]                                                   
  H          -5.887236             6.185308             0.984061            1             0.031932    [1[6[8][1][1]]]                                             
  H          -6.249780             5.744899            -0.681023            1             0.031932    [1[6[8][1][1]]]                                             
  H          -4.697418             6.409595            -0.437304            1             0.031932    [1[6[8][1][1]]]                                             
