12

  C           7.069487             6.948817             1.348319            0             0.099454    [6[8[1]][1][1][1]]                                          
  O           6.833436             7.462442             0.067141            0            -0.597823    [8[6[1][1][1]][1]]                                          
  H           6.469724             6.786522            -0.512093            0             0.402573    [1[8[6]]]                                                   
  H           6.543788             6.020128             1.325691            0             0.031932    [1[6[8][1][1]]]                                             
  H           8.106300             6.629288             1.569079            0             0.031932    [1[6[8][1][1]]]                                             
  H           6.689718             7.616708             2.082214            0             0.031932    [1[6[8][1][1]]]                                             
  C           10.052280            5.452050            -1.503370            1             0.099454    [6[8[1]][1][1][1]]                                          
  O           10.973635            4.329790            -1.606083            1            -0.597823    [8[6[1][1][1]][1]]                                          
  H           10.599673            3.696722            -2.185244            1             0.402573    [1[8[6]]]                                                   
  H           9.397262             5.643016            -2.412208            1             0.031932    [1[6[8][1][1]]]                                             
  H           9.391628             5.350623            -0.707857            1             0.031932    [1[6[8][1][1]]]                                             
  H           10.655890            6.370214            -1.350950            1             0.031932    [1[6[8][1][1]]]                                             
