12

  C          -9.460971            -5.850150            -9.983236            0             0.099454    [6[8[1]][1][1][1]]                                          
  O          -8.591912            -6.718918            -10.686473           0            -0.597823    [8[6[1][1][1]][1]]                                          
  H          -8.695396            -7.506844            -10.221084           0             0.402573    [1[8[6]]]                                                   
  H          -10.460182           -6.178799            -10.083656           0             0.031932    [1[6[8][1][1]]]                                             
  H          -9.193688            -5.917862            -8.911150            0             0.031932    [1[6[8][1][1]]]                                             
  H          -9.460853            -4.773154            -10.286841           0             0.031932    [1[6[8][1][1]]]                                             
  C          -8.143978            -6.388910            -5.973542            1             0.099454    [6[8[1]][1][1][1]]                                          
  O          -8.120722            -5.771291            -4.736894            1            -0.597823    [8[6[1][1][1]][1]]                                          
  H          -8.424341            -4.836239            -4.837612            1             0.402573    [1[8[6]]]                                                   
  H          -8.094001            -7.457910            -5.794814            1             0.031932    [1[6[8][1][1]]]                                             
  H          -9.053335            -6.044423            -6.514910            1             0.031932    [1[6[8][1][1]]]                                             
  H          -7.270860            -6.161837            -6.612663            1             0.031932    [1[6[8][1][1]]]                                             
