12

  C          -9.139240             8.319083             1.476346            0             0.099454    [6[8[1]][1][1][1]]                                          
  O          -8.010366             7.972983             0.697965            0            -0.597823    [8[6[1][1][1]][1]]                                          
  H          -7.540517             8.761070             0.432908            0             0.402573    [1[8[6]]]                                                   
  H          -9.768225             8.955373             0.903564            0             0.031932    [1[6[8][1][1]]]                                             
  H          -9.783392             7.442509             1.740151            0             0.031932    [1[6[8][1][1]]]                                             
  H          -8.859082             8.852121             2.322857            0             0.031932    [1[6[8][1][1]]]                                             
  C          -5.295898             11.164224            0.136350            1             0.099454    [6[8[1]][1][1][1]]                                          
  O          -6.616473             10.667765           -0.056341            1            -0.597823    [8[6[1][1][1]][1]]                                          
  H          -7.210147             11.113672            0.608424            1             0.402573    [1[8[6]]]                                                   
  H          -4.571156             10.775748           -0.601910            1             0.031932    [1[6[8][1][1]]]                                             
  H          -5.348116             12.251858           -0.002147            1             0.031932    [1[6[8][1][1]]]                                             
  H          -4.977152             10.833678            1.153379            1             0.031932    [1[6[8][1][1]]]                                             
