12

  C          -2.747217            -1.439285             7.215734            0             0.099454    [6[8[1]][1][1][1]]                                          
  O          -3.661565            -2.257749             7.941439            0            -0.597823    [8[6[1][1][1]][1]]                                          
  H          -4.087411            -2.914877             7.304557            0             0.402573    [1[8[6]]]                                                   
  H          -1.744539            -1.863552             7.165893            0             0.031932    [1[6[8][1][1]]]                                             
  H          -3.187766            -1.140830             6.244377            0             0.031932    [1[6[8][1][1]]]                                             
  H          -2.642980            -0.476722             7.720025            0             0.031932    [1[6[8][1][1]]]                                             
  C           1.134466             1.669467             7.854700            1             0.099454    [6[8[1]][1][1][1]]                                          
  O           0.471927             2.156405             8.954086            1            -0.597823    [8[6[1][1][1]][1]]                                          
  H          -0.458943             1.970741             8.862738            1             0.402573    [1[8[6]]]                                                   
  H           1.134125             0.515744             7.875608            1             0.031932    [1[6[8][1][1]]]                                             
  H           0.764826             1.840313             6.822769            1             0.031932    [1[6[8][1][1]]]                                             
  H           2.204869             1.978863             7.814812            1             0.031932    [1[6[8][1][1]]]                                             
