12

  C          -5.134553            -7.098486            -11.157631           0             0.099454    [6[8[1]][1][1][1]]                                          
  O          -6.287362            -7.656914            -11.565071           0            -0.597823    [8[6[1][1][1]][1]]                                          
  H          -6.782959            -7.946052            -10.769581           0             0.402573    [1[8[6]]]                                                   
  H          -4.525751            -6.722699            -12.042924           0             0.031932    [1[6[8][1][1]]]                                             
  H          -5.230122            -6.248975            -10.453781           0             0.031932    [1[6[8][1][1]]]                                             
  H          -4.588261            -7.930617            -10.645087           0             0.031932    [1[6[8][1][1]]]                                             
  C          -7.578670            -8.509468            -8.167756            1             0.099454    [6[8[1]][1][1][1]]                                          
  O          -7.835228            -8.917716            -9.481095            1            -0.597823    [8[6[1][1][1]][1]]                                          
  H          -8.546256            -9.584924            -9.387382            1             0.402573    [1[8[6]]]                                                   
  H          -8.346720            -7.836028            -7.752942            1             0.031932    [1[6[8][1][1]]]                                             
  H          -7.781455            -9.428599            -7.614438            1             0.031932    [1[6[8][1][1]]]                                             
  H          -6.493057            -8.257039            -8.086343            1             0.031932    [1[6[8][1][1]]]                                             
