12

  C           6.607193            -4.525845             4.377470            0             0.099454    [6[8[1]][1][1][1]]                                          
  O           6.373419            -5.532670             3.540175            0            -0.597823    [8[6[1][1][1]][1]]                                          
  H           5.453092            -5.878373             3.648403            0             0.402573    [1[8[6]]]                                                   
  H           6.456532            -4.812050             5.465561            0             0.031932    [1[6[8][1][1]]]                                             
  H           7.700353            -4.239288             4.432152            0             0.031932    [1[6[8][1][1]]]                                             
  H           6.134564            -3.540531             4.143520            0             0.031932    [1[6[8][1][1]]]                                             
  C           6.764283            -9.797262             4.796798            1             0.099454    [6[8[1]][1][1][1]]                                          
  O           7.854235            -9.253086             5.558836            1            -0.597823    [8[6[1][1][1]][1]]                                          
  H           8.440373            -8.669675             5.044567            1             0.402573    [1[8[6]]]                                                   
  H           6.126712            -10.337744            5.499328            1             0.031932    [1[6[8][1][1]]]                                             
  H           6.264568            -8.981207             4.208230            1             0.031932    [1[6[8][1][1]]]                                             
  H           7.082795            -10.555114            4.057515            1             0.031932    [1[6[8][1][1]]]                                             
