12

  C           4.271779             4.712240             5.343485            0             0.099454    [6[8[1]][1][1][1]]                                          
  O           4.861457             5.690898             4.454410            0            -0.597823    [8[6[1][1][1]][1]]                                          
  H           4.587557             5.662843             3.570705            0             0.402573    [1[8[6]]]                                                   
  H           4.713760             3.664029             5.121006            0             0.031932    [1[6[8][1][1]]]                                             
  H           4.705710             4.923602             6.335144            0             0.031932    [1[6[8][1][1]]]                                             
  H           3.190266             4.808637             5.377588            0             0.031932    [1[6[8][1][1]]]                                             
  C           2.553177             1.336763             7.634235            1             0.099454    [6[8[1]][1][1][1]]                                          
  O           3.440650             1.886024             8.638546            1            -0.597823    [8[6[1][1][1]][1]]                                          
  H           3.857186             1.178551             9.176372            1             0.402573    [1[8[6]]]                                                   
  H           2.465323             1.793510             6.596989            1             0.031932    [1[6[8][1][1]]]                                             
  H           2.849196             0.187880             7.390275            1             0.031932    [1[6[8][1][1]]]                                             
  H           1.626537             1.296802             8.128594            1             0.031932    [1[6[8][1][1]]]                                             
