12

  C          -11.039653           -0.863043            -7.009951            0             0.099454    [6[8[1]][1][1][1]]                                          
  O          -9.846374            -0.423377            -7.613633            0            -0.597823    [8[6[1][1][1]][1]]                                          
  H          -9.078687            -0.729567            -7.139579            0             0.402573    [1[8[6]]]                                                   
  H          -10.911681           -0.614363            -5.982342            0             0.031932    [1[6[8][1][1]]]                                             
  H          -11.876190           -0.281241            -7.407889            0             0.031932    [1[6[8][1][1]]]                                             
  H          -11.245498           -1.931224            -7.171333            0             0.031932    [1[6[8][1][1]]]                                             
  C          -5.024703            -0.475523            -9.681912            1             0.099454    [6[8[1]][1][1][1]]                                          
  O          -5.610899            -0.556094            -8.404248            1            -0.597823    [8[6[1][1][1]][1]]                                          
  H          -6.295084             0.138355            -8.425728            1             0.402573    [1[8[6]]]                                                   
  H          -5.727918            -0.348094            -10.497416           1             0.031932    [1[6[8][1][1]]]                                             
  H          -4.225119             0.281107            -9.772922            1             0.031932    [1[6[8][1][1]]]                                             
  H          -4.465926            -1.431594            -9.972453            1             0.031932    [1[6[8][1][1]]]                                             
