12

  C          -1.362543             6.784930             3.679058            0             0.099454    [6[8[1]][1][1][1]]                                          
  O          -0.219741             7.521161             3.879493            0            -0.597823    [8[6[1][1][1]][1]]                                          
  H           0.185538             7.018371             4.576261            0             0.402573    [1[8[6]]]                                                   
  H          -1.285645             5.847294             3.067514            0             0.031932    [1[6[8][1][1]]]                                             
  H          -1.664286             6.494515             4.688009            0             0.031932    [1[6[8][1][1]]]                                             
  H          -2.131244             7.378088             3.241805            0             0.031932    [1[6[8][1][1]]]                                             
  C           2.903288             6.157176             3.375307            1             0.099454    [6[8[1]][1][1][1]]                                          
  O           2.355776             6.871441             2.257254            1            -0.597823    [8[6[1][1][1]][1]]                                          
  H           1.487069             7.205921             2.419442            1             0.402573    [1[8[6]]]                                                   
  H           3.882769             5.824693             3.159846            1             0.031932    [1[6[8][1][1]]]                                             
  H           2.907708             6.811169             4.289706            1             0.031932    [1[6[8][1][1]]]                                             
  H           2.225679             5.284774             3.540277            1             0.031932    [1[6[8][1][1]]]                                             
