12

  C          -0.584460             9.833385            -7.370606            0             0.099454    [6[8[1]][1][1][1]]                                          
  O           0.262817             9.973202            -6.259486            0            -0.597823    [8[6[1][1][1]][1]]                                          
  H          -0.083268             10.436978           -5.479950            0             0.402573    [1[8[6]]]                                                   
  H          -1.227082             10.668618           -7.422794            0             0.031932    [1[6[8][1][1]]]                                             
  H           0.023229             9.743565            -8.282138            0             0.031932    [1[6[8][1][1]]]                                             
  H          -1.232432             8.935795            -7.342917            0             0.031932    [1[6[8][1][1]]]                                             
  C           3.464582             8.813456            -10.428779           1             0.099454    [6[8[1]][1][1][1]]                                          
  O           2.336244             8.000384            -10.454320           1            -0.597823    [8[6[1][1][1]][1]]                                          
  H           1.787386             8.235680            -11.193072           1             0.402573    [1[8[6]]]                                                   
  H           3.296530             9.821968            -10.304526           1             0.031932    [1[6[8][1][1]]]                                             
  H           4.093428             8.402228            -9.639219            1             0.031932    [1[6[8][1][1]]]                                             
  H           4.030470             8.628090            -11.359857           1             0.031932    [1[6[8][1][1]]]                                             
