12

  C           1.790265             3.458561             8.299905            0             0.099454    [6[8[1]][1][1][1]]                                          
  O           0.760315             4.348827             7.951540            0            -0.597823    [8[6[1][1][1]][1]]                                          
  H           0.700689             4.320397             6.985783            0             0.402573    [1[8[6]]]                                                   
  H           2.747720             4.048782             8.453165            0             0.031932    [1[6[8][1][1]]]                                             
  H           1.540345             2.807398             9.173545            0             0.031932    [1[6[8][1][1]]]                                             
  H           2.017215             2.823354             7.489023            0             0.031932    [1[6[8][1][1]]]                                             
  C           0.047512             0.175918             10.039209           1             0.099454    [6[8[1]][1][1][1]]                                          
  O          -1.173762             0.342067             9.306072            1            -0.597823    [8[6[1][1][1]][1]]                                          
  H          -1.409839            -0.517275             8.897116            1             0.402573    [1[8[6]]]                                                   
  H           0.918030             0.086260             9.426686            1             0.031932    [1[6[8][1][1]]]                                             
  H           0.369282             0.973946             10.683957           1             0.031932    [1[6[8][1][1]]]                                             
  H          -0.034030            -0.747890             10.620444           1             0.031932    [1[6[8][1][1]]]                                             
