12

  C           3.346385             5.166609            -0.324777            0             0.099454    [6[8[1]][1][1][1]]                                          
  O           4.605433             4.856927            -0.851271            0            -0.597823    [8[6[1][1][1]][1]]                                          
  H           4.735588             5.658297            -1.389277            0             0.402573    [1[8[6]]]                                                   
  H           2.939554             4.225934            -0.016089            0             0.031932    [1[6[8][1][1]]]                                             
  H           3.411675             5.727115             0.579502            0             0.031932    [1[6[8][1][1]]]                                             
  H           2.613158             5.716876            -1.000328            0             0.031932    [1[6[8][1][1]]]                                             
  C           1.036957             3.574297             2.264222            1             0.099454    [6[8[1]][1][1][1]]                                          
  O           0.901714             3.131418             0.918129            1            -0.597823    [8[6[1][1][1]][1]]                                          
  H           0.500410             3.835096             0.466656            1             0.402573    [1[8[6]]]                                                   
  H           1.735530             4.431400             2.282061            1             0.031932    [1[6[8][1][1]]]                                             
  H           0.118558             3.792975             2.761185            1             0.031932    [1[6[8][1][1]]]                                             
  H           1.387067             2.884953             2.982155            1             0.031932    [1[6[8][1][1]]]                                             
