12

  C          -10.006549           -8.983578             2.457631            0             0.099454    [6[8[1]][1][1][1]]                                          
  O          -11.332765           -9.384044             2.132506            0            -0.597823    [8[6[1][1][1]][1]]                                          
  H          -11.934447           -8.738316             2.524777            0             0.402573    [1[8[6]]]                                                   
  H          -9.919528            -7.819163             2.359987            0             0.031932    [1[6[8][1][1]]]                                             
  H          -9.692257            -9.178101             3.554183            0             0.031932    [1[6[8][1][1]]]                                             
  H          -9.276436            -9.382026             1.751698            0             0.031932    [1[6[8][1][1]]]                                             
  C          -10.970570           -8.447904             5.893369            1             0.099454    [6[8[1]][1][1][1]]                                          
  O          -10.342299           -9.588435             6.343870            1            -0.597823    [8[6[1][1][1]][1]]                                          
  H          -10.962584           -10.295352            6.186280            1             0.402573    [1[8[6]]]                                                   
  H          -10.201346           -7.610646             5.809055            1             0.031932    [1[6[8][1][1]]]                                             
  H          -11.538388           -8.705082             4.987265            1             0.031932    [1[6[8][1][1]]]                                             
  H          -11.729175           -8.082975             6.596208            1             0.031932    [1[6[8][1][1]]]                                             
