12

  C          -11.295443            9.223032             8.700884            0             0.099454    [6[8[1]][1][1][1]]                                          
  O          -9.892847             9.093159             8.688448            0            -0.597823    [8[6[1][1][1]][1]]                                          
  H          -9.680646             8.187656             8.839787            0             0.402573    [1[8[6]]]                                                   
  H          -11.743624            9.018829             7.762429            0             0.031932    [1[6[8][1][1]]]                                             
  H          -11.616767            8.333848             9.275435            0             0.031932    [1[6[8][1][1]]]                                             
  H          -11.685365            10.165059            9.078397            0             0.031932    [1[6[8][1][1]]]                                             
  C          -6.530383             10.951674            8.901592            1             0.099454    [6[8[1]][1][1][1]]                                          
  O          -7.684524             10.618841            9.735066            1            -0.597823    [8[6[1][1][1]][1]]                                          
  H          -8.353286             10.408918            9.066043            1             0.402573    [1[8[6]]]                                                   
  H          -6.719685             11.760187            8.203078            1             0.031932    [1[6[8][1][1]]]                                             
  H          -5.703094             11.170698            9.574333            1             0.031932    [1[6[8][1][1]]]                                             
  H          -6.189085             10.046732            8.366782            1             0.031932    [1[6[8][1][1]]]                                             
