12

  C           7.095750             3.934989             5.712976            0             0.099454    [6[8[1]][1][1][1]]                                          
  O           8.233398             3.019336             5.783510            0            -0.597823    [8[6[1][1][1]][1]]                                          
  H           8.730311             3.165655             4.956165            0             0.402573    [1[8[6]]]                                                   
  H           6.340234             3.723684             6.452433            0             0.031932    [1[6[8][1][1]]]                                             
  H           7.425371             4.894638             6.015371            0             0.031932    [1[6[8][1][1]]]                                             
  H           6.636750             3.988568             4.765022            0             0.031932    [1[6[8][1][1]]]                                             
  C           9.582655             6.879623             4.936623            1             0.099454    [6[8[1]][1][1][1]]                                          
  O           10.255227            6.090616             5.863854            1            -0.597823    [8[6[1][1][1]][1]]                                          
  H           10.330314            6.486114             6.755497            1             0.402573    [1[8[6]]]                                                   
  H           10.083130            7.853261             4.736883            1             0.031932    [1[6[8][1][1]]]                                             
  H           9.466581             6.489050             3.892743            1             0.031932    [1[6[8][1][1]]]                                             
  H           8.555110             7.126426             5.235489            1             0.031932    [1[6[8][1][1]]]                                             
