12

  C           8.855435             2.500085            -1.398292            0             0.099454    [6[8[1]][1][1][1]]                                          
  O           8.460156             1.355056            -0.672985            0            -0.597823    [8[6[1][1][1]][1]]                                          
  H           9.255421             1.118995            -0.121987            0             0.402573    [1[8[6]]]                                                   
  H           9.214119             3.364614            -0.741264            0             0.031932    [1[6[8][1][1]]]                                             
  H           9.646805             2.202095            -2.062144            0             0.031932    [1[6[8][1][1]]]                                             
  H           8.024161             2.826217            -2.019382            0             0.031932    [1[6[8][1][1]]]                                             
  C           10.006193            3.023497             2.387987            1             0.099454    [6[8[1]][1][1][1]]                                          
  O           9.008992             3.597998             3.216723            1            -0.597823    [8[6[1][1][1]][1]]                                          
  H           8.144207             3.307288             2.901018            1             0.402573    [1[8[6]]]                                                   
  H           9.695812             2.898919             1.395559            1             0.031932    [1[6[8][1][1]]]                                             
  H           10.964039            3.566239             2.285630            1             0.031932    [1[6[8][1][1]]]                                             
  H           10.212016            1.968806             2.642863            1             0.031932    [1[6[8][1][1]]]                                             
