12

  C           6.555521             2.875121             5.302771            0             0.099454    [6[8[1]][1][1][1]]                                          
  O           5.960526             2.912413             6.541502            0            -0.597823    [8[6[1][1][1]][1]]                                          
  H           5.034107             2.707951             6.433674            0             0.402573    [1[8[6]]]                                                   
  H           6.880396             3.815636             4.981021            0             0.031932    [1[6[8][1][1]]]                                             
  H           7.546284             2.419773             5.320943            0             0.031932    [1[6[8][1][1]]]                                             
  H           5.929050             2.395693             4.578541            0             0.031932    [1[6[8][1][1]]]                                             
  C           3.249225             3.038504             10.023126           1             0.099454    [6[8[1]][1][1][1]]                                          
  O           1.995367             2.482952             9.742321            1            -0.597823    [8[6[1][1][1]][1]]                                          
  H           2.069505             1.547390             10.004658           1             0.402573    [1[8[6]]]                                                   
  H           3.385172             3.935449             9.501430            1             0.031932    [1[6[8][1][1]]]                                             
  H           3.374864             3.187775             11.147714           1             0.031932    [1[6[8][1][1]]]                                             
  H           4.066608             2.405667             9.708746            1             0.031932    [1[6[8][1][1]]]                                             
