12

  C          -5.176520            -0.642955             5.468790            0             0.099454    [6[8[1]][1][1][1]]                                          
  O          -4.038877            -1.295501             5.945422            0            -0.597823    [8[6[1][1][1]][1]]                                          
  H          -4.126203            -2.205438             5.650035            0             0.402573    [1[8[6]]]                                                   
  H          -5.286508            -0.774904             4.375683            0             0.031932    [1[6[8][1][1]]]                                             
  H          -6.105946            -0.911018             5.899308            0             0.031932    [1[6[8][1][1]]]                                             
  H          -5.090722             0.414521             5.747167            0             0.031932    [1[6[8][1][1]]]                                             
  C          -5.155608             4.448761             6.495203            1             0.099454    [6[8[1]][1][1][1]]                                          
  O          -4.963587             4.813747             5.143795            1            -0.597823    [8[6[1][1][1]][1]]                                          
  H          -4.164699             5.306233             4.967387            1             0.402573    [1[8[6]]]                                                   
  H          -5.003782             5.333135             7.120820            1             0.031932    [1[6[8][1][1]]]                                             
  H          -6.091171             3.966939             6.766882            1             0.031932    [1[6[8][1][1]]]                                             
  H          -4.363425             3.691716             6.857259            1             0.031932    [1[6[8][1][1]]]                                             
