12

  C           3.963104            -1.894302            -6.831238            0             0.099454    [6[8[1]][1][1][1]]                                          
  O           4.841024            -1.628224            -5.724773            0            -0.597823    [8[6[1][1][1]][1]]                                          
  H           5.315042            -2.462843            -5.462940            0             0.402573    [1[8[6]]]                                                   
  H           3.675892            -0.939994            -7.360445            0             0.031932    [1[6[8][1][1]]]                                             
  H           4.399781            -2.566132            -7.606293            0             0.031932    [1[6[8][1][1]]]                                             
  H           3.045565            -2.437522            -6.505905            0             0.031932    [1[6[8][1][1]]]                                             
  C           1.492828             0.368408            -5.091656            1             0.099454    [6[8[1]][1][1][1]]                                          
  O           1.961456             0.876587            -3.881381            1            -0.597823    [8[6[1][1][1]][1]]                                          
  H           2.572465             0.270275            -3.456347            1             0.402573    [1[8[6]]]                                                   
  H           2.162575             0.620419            -5.884801            1             0.031932    [1[6[8][1][1]]]                                             
  H           1.356467            -0.711084            -4.939639            1             0.031932    [1[6[8][1][1]]]                                             
  H           0.515742             0.725289            -5.371675            1             0.031932    [1[6[8][1][1]]]                                             
