12

  C          -6.308179            -5.387465            -2.161918            0             0.099454    [6[8[1]][1][1][1]]                                          
  O          -4.901234            -5.451709            -1.749648            0            -0.597823    [8[6[1][1][1]][1]]                                          
  H          -4.873933            -6.027285            -0.960875            0             0.402573    [1[8[6]]]                                                   
  H          -6.791508            -4.616564            -1.659120            0             0.031932    [1[6[8][1][1]]]                                             
  H          -6.432112            -5.097386            -3.261564            0             0.031932    [1[6[8][1][1]]]                                             
  H          -6.785034            -6.313867            -1.949980            0             0.031932    [1[6[8][1][1]]]                                             
  C          -5.450394            -7.017792             1.970977            1             0.099454    [6[8[1]][1][1][1]]                                          
  O          -6.042229            -6.920867             0.673254            1            -0.597823    [8[6[1][1][1]][1]]                                          
  H          -6.564923            -7.763865             0.522771            1             0.402573    [1[8[6]]]                                                   
  H          -4.782055            -7.916130             2.135093            1             0.031932    [1[6[8][1][1]]]                                             
  H          -4.793322            -6.180792             2.074901            1             0.031932    [1[6[8][1][1]]]                                             
  H          -6.219856            -6.898667             2.649508            1             0.031932    [1[6[8][1][1]]]                                             
