12

  C          -3.609709            -6.212238             11.084964           0             0.099454    [6[8[1]][1][1][1]]                                          
  O          -4.364734            -5.445713             10.082139           0            -0.597823    [8[6[1][1][1]][1]]                                          
  H          -4.900436            -4.779414             10.518448           0             0.402573    [1[8[6]]]                                                   
  H          -3.996064            -6.014864             12.063790           0             0.031932    [1[6[8][1][1]]]                                             
  H          -3.631724            -7.334633             10.985328           0             0.031932    [1[6[8][1][1]]]                                             
  H          -2.523652            -5.863047             11.239573           0             0.031932    [1[6[8][1][1]]]                                             
  C          -5.088783            -9.536046             9.311641            1             0.099454    [6[8[1]][1][1][1]]                                          
  O          -5.169613            -10.257828            10.555872           1            -0.597823    [8[6[1][1][1]][1]]                                          
  H          -5.059206            -9.633268             11.275877           1             0.402573    [1[8[6]]]                                                   
  H          -4.578815            -10.188779            8.621450            1             0.031932    [1[6[8][1][1]]]                                             
  H          -6.097560            -9.299392             8.898117            1             0.031932    [1[6[8][1][1]]]                                             
  H          -4.579162            -8.571571             9.383033            1             0.031932    [1[6[8][1][1]]]                                             
