12

  C           10.598297            2.837385            -1.801896            0             0.099454    [6[8[1]][1][1][1]]                                          
  O           9.379781             3.385239            -1.482951            0            -0.597823    [8[6[1][1][1]][1]]                                          
  H           9.251129             4.139549            -2.120449            0             0.402573    [1[8[6]]]                                                   
  H           10.914625            2.204961            -0.999284            0             0.031932    [1[6[8][1][1]]]                                             
  H           10.628990            2.281580            -2.793136            0             0.031932    [1[6[8][1][1]]]                                             
  H           11.305323            3.649385            -1.894489            0             0.031932    [1[6[8][1][1]]]                                             
  C           9.038887             6.526056            -2.664774            1             0.099454    [6[8[1]][1][1][1]]                                          
  O           8.434015             5.502491            -3.416970            1            -0.597823    [8[6[1][1][1]][1]]                                          
  H           7.926180             5.920093            -4.109591            1             0.402573    [1[8[6]]]                                                   
  H           9.811241             7.077461            -3.162450            1             0.031932    [1[6[8][1][1]]]                                             
  H           8.338956             7.297819            -2.298111            1             0.031932    [1[6[8][1][1]]]                                             
  H           9.469062             6.170115            -1.708386            1             0.031932    [1[6[8][1][1]]]                                             
