12

  C           10.695585            5.804026            -9.585432            0             0.099454    [6[8[1]][1][1][1]]                                          
  O           10.520854            4.713502            -8.722632            0            -0.597823    [8[6[1][1][1]][1]]                                          
  H           10.299957            5.135141            -7.866166            0             0.402573    [1[8[6]]]                                                   
  H           11.089620            5.402777            -10.519049           0             0.031932    [1[6[8][1][1]]]                                             
  H           9.779639             6.421214            -9.795723            0             0.031932    [1[6[8][1][1]]]                                             
  H           11.544549            6.403537            -9.255654            0             0.031932    [1[6[8][1][1]]]                                             
  C           7.298053             3.163485            -7.609605            1             0.099454    [6[8[1]][1][1][1]]                                          
  O           7.927927             2.859628            -8.825408            1            -0.597823    [8[6[1][1][1]][1]]                                          
  H           8.530583             3.569372            -9.131966            1             0.402573    [1[8[6]]]                                                   
  H           6.640703             3.988560            -7.772951            1             0.031932    [1[6[8][1][1]]]                                             
  H           6.696490             2.329643            -7.244909            1             0.031932    [1[6[8][1][1]]]                                             
  H           8.113094             3.351254            -6.863576            1             0.031932    [1[6[8][1][1]]]                                             
