12

  C          -3.572831            -2.518480            -3.619282            0             0.099454    [6[8[1]][1][1][1]]                                          
  O          -2.201665            -2.609266            -3.374965            0            -0.597823    [8[6[1][1][1]][1]]                                          
  H          -1.933915            -3.521238            -3.503153            0             0.402573    [1[8[6]]]                                                   
  H          -4.055319            -3.201278            -2.917605            0             0.031932    [1[6[8][1][1]]]                                             
  H          -3.926328            -1.556956            -3.334496            0             0.031932    [1[6[8][1][1]]]                                             
  H          -3.891178            -2.573715            -4.624249            0             0.031932    [1[6[8][1][1]]]                                             
  C          -3.331310            -6.055816            -3.086817            1             0.099454    [6[8[1]][1][1][1]]                                          
  O          -2.105490            -5.613339            -2.688533            1            -0.597823    [8[6[1][1][1]][1]]                                          
  H          -1.456967            -6.305582            -2.864196            1             0.402573    [1[8[6]]]                                                   
  H          -4.237121            -5.471085            -2.682077            1             0.031932    [1[6[8][1][1]]]                                             
  H          -3.476573            -6.009731            -4.181249            1             0.031932    [1[6[8][1][1]]]                                             
  H          -3.507395            -7.181582            -2.902595            1             0.031932    [1[6[8][1][1]]]                                             
