12

  C           5.933043             0.052721            -9.709095            0             0.099454    [6[8[1]][1][1][1]]                                          
  O           5.528336             0.447051            -10.968198           0            -0.597823    [8[6[1][1][1]][1]]                                          
  H           5.157719            -0.297805            -11.447300           0             0.402573    [1[8[6]]]                                                   
  H           6.258533            -0.932075            -9.626614            0             0.031932    [1[6[8][1][1]]]                                             
  H           6.793636             0.701506            -9.427070            0             0.031932    [1[6[8][1][1]]]                                             
  H           5.139158             0.209402            -9.025313            0             0.031932    [1[6[8][1][1]]]                                             
  C           4.883244            -3.118072            -10.929616           1             0.099454    [6[8[1]][1][1][1]]                                          
  O           5.604353            -2.171194            -11.780115           1            -0.597823    [8[6[1][1][1]][1]]                                          
  H           6.536852            -2.425342            -11.674643           1             0.402573    [1[8[6]]]                                                   
  H           3.844992            -3.309413            -11.121508           1             0.031932    [1[6[8][1][1]]]                                             
  H           5.377725            -4.104453            -11.004845           1             0.031932    [1[6[8][1][1]]]                                             
  H           4.933253            -2.812572            -9.878547            1             0.031932    [1[6[8][1][1]]]                                             
