12

  C          -11.209896           -8.211989             9.745576            0             0.099454    [6[8[1]][1][1][1]]                                          
  O          -10.834857           -7.485148             10.855116           0            -0.597823    [8[6[1][1][1]][1]]                                          
  H          -10.149302           -6.842815             10.490866           0             0.402573    [1[8[6]]]                                                   
  H          -11.361402           -7.572291             8.793992            0             0.031932    [1[6[8][1][1]]]                                             
  H          -10.412450           -8.917025             9.612272            0             0.031932    [1[6[8][1][1]]]                                             
  H          -12.203967           -8.706620             9.878489            0             0.031932    [1[6[8][1][1]]]                                             
  C          -10.375505           -4.960749             7.946851            1             0.099454    [6[8[1]][1][1][1]]                                          
  O          -9.642178            -5.442567             9.053900            1            -0.597823    [8[6[1][1][1]][1]]                                          
  H          -8.691800            -5.201689             8.950636            1             0.402573    [1[8[6]]]                                                   
  H          -10.167035           -3.861458             7.836192            1             0.031932    [1[6[8][1][1]]]                                             
  H          -10.193119           -5.459755             6.987035            1             0.031932    [1[6[8][1][1]]]                                             
  H          -11.476513           -4.870037             8.202719            1             0.031932    [1[6[8][1][1]]]                                             
