12

  C           3.522016             3.639850            -5.642399            0             0.099454    [6[8[1]][1][1][1]]                                          
  O           2.143090             3.550942            -6.096599            0            -0.597823    [8[6[1][1][1]][1]]                                          
  H           1.805661             2.673086            -5.987223            0             0.402573    [1[8[6]]]                                                   
  H           4.273496             3.105135            -6.260099            0             0.031932    [1[6[8][1][1]]]                                             
  H           3.856484             4.635359            -5.653615            0             0.031932    [1[6[8][1][1]]]                                             
  H           3.616482             3.242243            -4.599402            0             0.031932    [1[6[8][1][1]]]                                             
  C           4.786536             1.934053            -9.169567            1             0.099454    [6[8[1]][1][1][1]]                                          
  O           3.636102             1.549809            -9.905349            1            -0.597823    [8[6[1][1][1]][1]]                                          
  H           2.858225             2.027964            -9.611746            1             0.402573    [1[8[6]]]                                                   
  H           4.635874             2.952364            -8.679359            1             0.031932    [1[6[8][1][1]]]                                             
  H           4.943372             1.307683            -8.255062            1             0.031932    [1[6[8][1][1]]]                                             
  H           5.692643             1.914924            -9.832662            1             0.031932    [1[6[8][1][1]]]                                             
