12

  C          -4.571858            -8.509217             7.080362            0             0.099454    [6[8[1]][1][1][1]]                                          
  O          -3.583468            -7.449682             7.394431            0            -0.597823    [8[6[1][1][1]][1]]                                          
  H          -3.572475            -6.902586             6.640899            0             0.402573    [1[8[6]]]                                                   
  H          -4.180799            -9.176255             6.298429            0             0.031932    [1[6[8][1][1]]]                                             
  H          -4.673121            -9.129860             7.950470            0             0.031932    [1[6[8][1][1]]]                                             
  H          -5.476760            -8.065264             6.898514            0             0.031932    [1[6[8][1][1]]]                                             
  C          -5.919943            -5.264590             5.812033            1             0.099454    [6[8[1]][1][1][1]]                                          
  O          -4.801855            -5.892888             5.255524            1            -0.597823    [8[6[1][1][1]][1]]                                          
  H          -5.073147            -6.405763             4.499573            1             0.402573    [1[8[6]]]                                                   
  H          -6.574539            -6.058706             6.165626            1             0.031932    [1[6[8][1][1]]]                                             
  H          -5.671580            -4.421539             6.542132            1             0.031932    [1[6[8][1][1]]]                                             
  H          -6.546800            -4.793408             5.010376            1             0.031932    [1[6[8][1][1]]]                                             
