12

  C          -6.482457            -6.091744            -11.616427           0             0.099454    [6[8[1]][1][1][1]]                                          
  O          -6.748681            -6.186808            -10.242572           0            -0.597823    [8[6[1][1][1]][1]]                                          
  H          -6.790137            -5.363731            -9.729532            0             0.402573    [1[8[6]]]                                                   
  H          -7.125715            -5.429157            -12.132322           0             0.031932    [1[6[8][1][1]]]                                             
  H          -5.530468            -5.572866            -11.775662           0             0.031932    [1[6[8][1][1]]]                                             
  H          -6.388227            -7.055093            -12.114680           0             0.031932    [1[6[8][1][1]]]                                             
  C          -3.409944            -3.200661            -11.415578           1             0.099454    [6[8[1]][1][1][1]]                                          
  O          -4.520809            -2.517860            -12.061190           1            -0.597823    [8[6[1][1][1]][1]]                                          
  H          -5.317092            -3.078029            -11.949362           1             0.402573    [1[8[6]]]                                                   
  H          -3.263767            -4.227433            -11.889245           1             0.031932    [1[6[8][1][1]]]                                             
  H          -2.511898            -2.596734            -11.319365           1             0.031932    [1[6[8][1][1]]]                                             
  H          -3.773420            -3.392380            -10.345352           1             0.031932    [1[6[8][1][1]]]                                             
