6

  C          -2.477856            -0.919094            -0.874970            0             0.089063    [6[8[1]][1][1][1]]                                          
  O          -3.183796            -2.067968            -0.463526            0            -0.604789    [8[6[1][1][1]][1]]                                          
  H          -4.029406            -1.794398            -0.199802            0             0.406250    [1[8[6]]]                                                   
  H          -1.463433            -1.176797            -1.236245            0             0.036492    [1[6[8][1][1]]]                                             
  H          -2.972257            -0.512421            -1.753897            0             0.036492    [1[6[8][1][1]]]                                             
  H          -2.581299            -0.029120            -0.192915            0             0.036492    [1[6[8][1][1]]]                                             
