12

  C          -9.672709             4.006744             2.552932            0             0.099454    [6[8[1]][1][1][1]]                                          
  O          -10.300829            4.988320             3.368327            0            -0.597823    [8[6[1][1][1]][1]]                                          
  H          -10.582800            4.429678             4.110281            0             0.402573    [1[8[6]]]                                                   
  H          -10.532027            3.583830             1.937451            0             0.031932    [1[6[8][1][1]]]                                             
  H          -9.091793             4.425824             1.762786            0             0.031932    [1[6[8][1][1]]]                                             
  H          -9.184682             3.240365             3.147805            0             0.031932    [1[6[8][1][1]]]                                             
  C          -8.821175             7.708635             4.827708            1             0.099454    [6[8[1]][1][1][1]]                                          
  O          -9.694254             6.956214             5.624121            1            -0.597823    [8[6[1][1][1]][1]]                                          
  H          -9.914970             6.093896             5.191670            1             0.402573    [1[8[6]]]                                                   
  H          -9.081705             7.505497             3.747973            1             0.031932    [1[6[8][1][1]]]                                             
  H          -8.759450             8.770394             5.021524            1             0.031932    [1[6[8][1][1]]]                                             
  H          -7.757851             7.402679             4.889998            1             0.031932    [1[6[8][1][1]]]                                             
