12

  C           10.897370           -4.828335            -5.212049            0             0.099454    [6[8[1]][1][1][1]]                                          
  O           10.128683           -5.048233            -4.102397            0            -0.597823    [8[6[1][1][1]][1]]                                          
  H           10.550345           -5.640058            -3.471938            0             0.402573    [1[8[6]]]                                                   
  H           10.375787           -4.184075            -5.913286            0             0.031932    [1[6[8][1][1]]]                                             
  H           11.856245           -4.460525            -4.901926            0             0.031932    [1[6[8][1][1]]]                                             
  H           11.026983           -5.774149            -5.832177            0             0.031932    [1[6[8][1][1]]]                                             
  C           7.713792            -7.355257            -5.392447            1             0.099454    [6[8[1]][1][1][1]]                                          
  O           7.815476            -7.103153            -3.960262            1            -0.597823    [8[6[1][1][1]][1]]                                          
  H           8.624440            -6.547739            -3.986999            1             0.402573    [1[8[6]]]                                                   
  H           8.597518            -7.881962            -5.807863            1             0.031932    [1[6[8][1][1]]]                                             
  H           6.778672            -7.836321            -5.653794            1             0.031932    [1[6[8][1][1]]]                                             
  H           7.838172            -6.398663            -5.970114            1             0.031932    [1[6[8][1][1]]]                                             
