12

  C           8.225570            -5.036562            -10.635713           0             0.099454    [6[8[1]][1][1][1]]                                          
  O           9.494717            -4.448747            -10.873719           0            -0.597823    [8[6[1][1][1]][1]]                                          
  H           10.143918           -4.712817            -10.159764           0             0.402573    [1[8[6]]]                                                   
  H           7.640099            -4.492365            -11.329972           0             0.031932    [1[6[8][1][1]]]                                             
  H           8.233326            -6.129143            -10.788941           0             0.031932    [1[6[8][1][1]]]                                             
  H           7.973566            -4.890603            -9.558442            0             0.031932    [1[6[8][1][1]]]                                             
  C           10.216525           -3.071881            -7.313007            1             0.099454    [6[8[1]][1][1][1]]                                          
  O           10.804575           -3.202330            -8.625591            1            -0.597823    [8[6[1][1][1]][1]]                                          
  H           10.303395           -2.704909            -9.239488            1             0.402573    [1[8[6]]]                                                   
  H           10.831015           -3.504311            -6.458640            1             0.031932    [1[6[8][1][1]]]                                             
  H           10.061956           -1.978435            -7.131601            1             0.031932    [1[6[8][1][1]]]                                             
  H           9.240508            -3.474083            -7.385796            1             0.031932    [1[6[8][1][1]]]                                             
