12

  C           8.342883            -9.562659            -7.085963            0             0.099454    [6[8[1]][1][1][1]]                                          
  O           6.954251            -9.875099            -6.737926            0            -0.597823    [8[6[1][1][1]][1]]                                          
  H           6.672375            -10.682217           -7.228092            0             0.402573    [1[8[6]]]                                                   
  H           8.799559            -9.099347            -6.241238            0             0.031932    [1[6[8][1][1]]]                                             
  H           8.929992            -10.375192           -7.488363            0             0.031932    [1[6[8][1][1]]]                                             
  H           8.393096            -8.772650            -7.810404            0             0.031932    [1[6[8][1][1]]]                                             
  C           5.199033            -9.097002            -3.574988            1             0.099454    [6[8[1]][1][1][1]]                                          
  O           6.451183            -8.695826            -4.091905            1            -0.597823    [8[6[1][1][1]][1]]                                          
  H           6.443825            -8.843585            -5.019329            1             0.402573    [1[8[6]]]                                                   
  H           5.190633            -9.018108            -2.425357            1             0.031932    [1[6[8][1][1]]]                                             
  H           4.430538            -8.410827            -3.947022            1             0.031932    [1[6[8][1][1]]]                                             
  H           4.918615            -10.093391           -3.951193            1             0.031932    [1[6[8][1][1]]]                                             
