12

  C           10.626714           -1.553209            -3.493255            0             0.099454    [6[8[1]][1][1][1]]                                          
  O           10.101864           -0.817271            -4.619410            0            -0.597823    [8[6[1][1][1]][1]]                                          
  H           10.209044            0.073226            -4.410134            0             0.402573    [1[8[6]]]                                                   
  H           11.118105           -2.500433            -3.664724            0             0.031932    [1[6[8][1][1]]]                                             
  H           11.313706           -0.899889            -2.978231            0             0.031932    [1[6[8][1][1]]]                                             
  H           9.792172            -1.717324            -2.734671            0             0.031932    [1[6[8][1][1]]]                                             
  C           10.128577            0.098016            -7.714797            1             0.099454    [6[8[1]][1][1][1]]                                          
  O           10.258327            1.347297            -7.099161            1            -0.597823    [8[6[1][1][1]][1]]                                          
  H           9.527064             1.536801            -6.495390            1             0.402573    [1[8[6]]]                                                   
  H           10.339531           -0.673182            -6.936152            1             0.031932    [1[6[8][1][1]]]                                             
  H           9.078688             0.010444            -8.055894            1             0.031932    [1[6[8][1][1]]]                                             
  H           10.771831           -0.072254            -8.598922            1             0.031932    [1[6[8][1][1]]]                                             
