12

  C          -7.916342            -6.777899            -3.497241            0             0.099454    [6[8[1]][1][1][1]]                                          
  O          -8.592063            -7.645050            -2.610539            0            -0.597823    [8[6[1][1][1]][1]]                                          
  H          -8.289805            -7.563570            -1.732779            0             0.402573    [1[8[6]]]                                                   
  H          -6.857783            -7.080269            -3.642114            0             0.031932    [1[6[8][1][1]]]                                             
  H          -8.305381            -6.748343            -4.490312            0             0.031932    [1[6[8][1][1]]]                                             
  H          -8.036397            -5.738256            -3.130291            0             0.031932    [1[6[8][1][1]]]                                             
  C          -4.685835            -4.218706            -1.905755            1             0.099454    [6[8[1]][1][1][1]]                                          
  O          -5.620403            -4.875687            -1.045612            1            -0.597823    [8[6[1][1][1]][1]]                                          
  H          -6.175920            -5.416958            -1.549472            1             0.402573    [1[8[6]]]                                                   
  H          -3.776749            -4.781768            -1.666579            1             0.031932    [1[6[8][1][1]]]                                             
  H          -4.911927            -4.250010            -2.974445            1             0.031932    [1[6[8][1][1]]]                                             
  H          -4.583469            -3.144852            -1.605303            1             0.031932    [1[6[8][1][1]]]                                             
