12

  C          -4.012360            -0.632223            -6.223825            0             0.099454    [6[8[1]][1][1][1]]                                          
  O          -2.965257            -0.703320            -7.190753            0            -0.597823    [8[6[1][1][1]][1]]                                          
  H          -2.852629             0.189757            -7.475184            0             0.402573    [1[8[6]]]                                                   
  H          -4.895015            -0.107006            -6.552738            0             0.031932    [1[6[8][1][1]]]                                             
  H          -4.281098            -1.627161            -5.907874            0             0.031932    [1[6[8][1][1]]]                                             
  H          -3.664603            -0.197199            -5.263075            0             0.031932    [1[6[8][1][1]]]                                             
  C          -0.695942            -1.118168            -4.644641            1             0.099454    [6[8[1]][1][1][1]]                                          
  O          -0.689851             0.124149            -5.212528            1            -0.597823    [8[6[1][1][1]][1]]                                          
  H          -0.049258             0.673570            -4.677234            1             0.402573    [1[8[6]]]                                                   
  H          -0.102550            -1.842898            -5.168804            1             0.031932    [1[6[8][1][1]]]                                             
  H          -0.440777            -1.019185            -3.624721            1             0.031932    [1[6[8][1][1]]]                                             
  H          -1.700991            -1.589887            -4.669325            1             0.031932    [1[6[8][1][1]]]                                             
