12

  C          -5.953416             6.441439            -5.791146            0             0.099454    [6[8[1]][1][1][1]]                                          
  O          -4.882713             6.105189            -6.733241            0            -0.597823    [8[6[1][1][1]][1]]                                          
  H          -4.725952             5.151699            -6.657263            0             0.402573    [1[8[6]]]                                                   
  H          -5.894636             7.567412            -5.696806            0             0.031932    [1[6[8][1][1]]]                                             
  H          -6.940423             6.332680            -6.210736            0             0.031932    [1[6[8][1][1]]]                                             
  H          -5.806236             5.876499            -4.860108            0             0.031932    [1[6[8][1][1]]]                                             
  C          -1.555646             5.231252            -6.405208            1             0.099454    [6[8[1]][1][1][1]]                                          
  O          -0.346762             4.541400            -6.399865            1            -0.597823    [8[6[1][1][1]][1]]                                          
  H           0.267018             4.970165            -5.812395            1             0.402573    [1[8[6]]]                                                   
  H          -1.461585             6.358154            -6.598062            1             0.031932    [1[6[8][1][1]]]                                             
  H          -2.193016             4.839029            -7.166690            1             0.031932    [1[6[8][1][1]]]                                             
  H          -2.062145             5.051455            -5.484070            1             0.031932    [1[6[8][1][1]]]                                             
