12

  C           1.349163             10.492451           -10.514174           0             0.099454    [6[8[1]][1][1][1]]                                          
  O           1.365359             10.181597           -9.148429            0            -0.597823    [8[6[1][1][1]][1]]                                          
  H           0.735344             9.473616            -8.959441            0             0.402573    [1[8[6]]]                                                   
  H           0.307704             10.782875           -10.802773           0             0.031932    [1[6[8][1][1]]]                                             
  H           2.044243             11.313737           -10.780355           0             0.031932    [1[6[8][1][1]]]                                             
  H           1.682850             9.493341            -10.950823           0             0.031932    [1[6[8][1][1]]]                                             
  C           3.842978             8.357249            -7.229615            1             0.099454    [6[8[1]][1][1][1]]                                          
  O           2.539073             8.006009            -7.600498            1            -0.597823    [8[6[1][1][1]][1]]                                          
  H           2.190317             8.614936            -8.300104            1             0.402573    [1[8[6]]]                                                   
  H           4.281900             7.668772            -6.543029            1             0.031932    [1[6[8][1][1]]]                                             
  H           4.554479             8.374157            -8.089312            1             0.031932    [1[6[8][1][1]]]                                             
  H           3.867044             9.369579            -6.745208            1             0.031932    [1[6[8][1][1]]]                                             
