12

  C          -0.007571             2.884202             0.553842            0             0.099454    [6[8[1]][1][1][1]]                                          
  O          -0.961278             2.596705            -0.447890            0            -0.597823    [8[6[1][1][1]][1]]                                          
  H          -1.309672             3.448110            -0.727636            0             0.402573    [1[8[6]]]                                                   
  H          -0.458122             3.474589             1.324680            0             0.031932    [1[6[8][1][1]]]                                             
  H           0.421138             2.083740             1.150053            0             0.031932    [1[6[8][1][1]]]                                             
  H           0.747337             3.588553             0.238310            0             0.031932    [1[6[8][1][1]]]                                             
  C           0.546155            -0.386009            -2.246830            1             0.099454    [6[8[1]][1][1][1]]                                          
  O          -0.111670            -0.141035            -1.018801            1            -0.597823    [8[6[1][1][1]][1]]                                          
  H          -0.654529             0.653653            -1.151172            1             0.402573    [1[8[6]]]                                                   
  H           1.184324             0.479456            -2.585590            1             0.031932    [1[6[8][1][1]]]                                             
  H           1.090515            -1.314380            -2.225483            1             0.031932    [1[6[8][1][1]]]                                             
  H          -0.141371            -0.503635            -3.086953            1             0.031932    [1[6[8][1][1]]]                                             
