6

  C          -3.147951            -8.611223            -3.303645            0             0.089063    [6[8[1]][1][1][1]]                                          
  O          -3.540132            -9.693111            -2.461106            0            -0.604789    [8[6[1][1][1]][1]]                                          
  H          -4.061371            -9.261799            -1.729854            0             0.406250    [1[8[6]]]                                                   
  H          -2.515672            -7.948690            -2.731341            0             0.036492    [1[6[8][1][1]]]                                             
  H          -2.549695            -8.968175            -4.120108            0             0.036492    [1[6[8][1][1]]]                                             
  H          -4.049267            -8.092638            -3.703248            0             0.036492    [1[6[8][1][1]]]                                             
