12

  C          -0.918051             9.986518            -4.696559            0             0.099454    [6[8[1]][1][1][1]]                                          
  O           0.482540             9.792273            -5.105386            0            -0.597823    [8[6[1][1][1]][1]]                                          
  H           0.396491             9.328244            -5.962615            0             0.402573    [1[8[6]]]                                                   
  H          -1.468727             10.746023           -5.246948            0             0.031932    [1[6[8][1][1]]]                                             
  H          -1.570204             9.126121            -4.893993            0             0.031932    [1[6[8][1][1]]]                                             
  H          -1.051724             10.273759           -3.662889            0             0.031932    [1[6[8][1][1]]]                                             
  C           2.138114             7.553743            -3.607472            1             0.099454    [6[8[1]][1][1][1]]                                          
  O           2.033165             8.634707            -2.745587            1            -0.597823    [8[6[1][1][1]][1]]                                          
  H           1.551235             9.341516            -3.242946            1             0.402573    [1[8[6]]]                                                   
  H           2.661205             6.794591            -3.034214            1             0.031932    [1[6[8][1][1]]]                                             
  H           1.144059             7.065508            -3.824194            1             0.031932    [1[6[8][1][1]]]                                             
  H           2.753719             7.638786            -4.459255            1             0.031932    [1[6[8][1][1]]]                                             
