12

  C           0.458656            -0.930274            -4.011846            0             0.099454    [6[8[1]][1][1][1]]                                          
  O           1.515919            -0.989407            -3.097757            0            -0.597823    [8[6[1][1][1]][1]]                                          
  H           2.343066            -1.128490            -3.561394            0             0.402573    [1[8[6]]]                                                   
  H           0.659038            -0.054227            -4.714166            0             0.031932    [1[6[8][1][1]]]                                             
  H           0.496070            -1.799020            -4.676867            0             0.031932    [1[6[8][1][1]]]                                             
  H          -0.554769            -0.926448            -3.628725            0             0.031932    [1[6[8][1][1]]]                                             
  C          -0.727275             1.563052            -0.967298            1             0.099454    [6[8[1]][1][1][1]]                                          
  O           0.096966             0.363734            -0.938946            1            -0.597823    [8[6[1][1][1]][1]]                                          
  H           0.008853            -0.073685            -1.808591            1             0.402573    [1[8[6]]]                                                   
  H          -1.797823             1.336049            -1.111129            1             0.031932    [1[6[8][1][1]]]                                             
  H          -0.641607             2.169287            -0.038777            1             0.031932    [1[6[8][1][1]]]                                             
  H          -0.399857             2.277220            -1.734787            1             0.031932    [1[6[8][1][1]]]                                             
