12

  C           6.425509             10.084216           -9.917144            0             0.099454    [6[8[1]][1][1][1]]                                          
  O           6.767222             11.232632           -9.099256            0            -0.597823    [8[6[1][1][1]][1]]                                          
  H           5.918805             11.504326           -8.737319            0             0.402573    [1[8[6]]]                                                   
  H           5.355203             9.881868            -9.973306            0             0.031932    [1[6[8][1][1]]]                                             
  H           6.853493             10.319147           -10.919582           0             0.031932    [1[6[8][1][1]]]                                             
  H           6.843638             9.127835            -9.563481            0             0.031932    [1[6[8][1][1]]]                                             
  C           6.976497             8.006726            -7.057729            1             0.099454    [6[8[1]][1][1][1]]                                          
  O           7.408445             9.358313            -6.936746            1            -0.597823    [8[6[1][1][1]][1]]                                          
  H           7.372370             9.843564            -7.800199            1             0.402573    [1[8[6]]]                                                   
  H           6.427452             7.731948            -7.882621            1             0.031932    [1[6[8][1][1]]]                                             
  H           7.838230             7.343526            -7.132434            1             0.031932    [1[6[8][1][1]]]                                             
  H           6.382113             7.740143            -6.200561            1             0.031932    [1[6[8][1][1]]]                                             
