12

  C          -4.658780            -2.037883             7.649658            0             0.099454    [6[8[1]][1][1][1]]                                          
  O          -5.337638            -1.572166             6.540238            0            -0.597823    [8[6[1][1][1]][1]]                                          
  H          -6.235660            -1.469603             6.901389            0             0.402573    [1[8[6]]]                                                   
  H          -3.612432            -1.652803             7.614765            0             0.031932    [1[6[8][1][1]]]                                             
  H          -5.188026            -1.588476             8.460927            0             0.031932    [1[6[8][1][1]]]                                             
  H          -4.629709            -3.094023             7.716798            0             0.031932    [1[6[8][1][1]]]                                             
  C          -6.097727            -5.340235             3.404560            1             0.099454    [6[8[1]][1][1][1]]                                          
  O          -6.498002            -6.530726             3.998378            1            -0.597823    [8[6[1][1][1]][1]]                                          
  H          -6.377586            -6.543467             4.952224            1             0.402573    [1[8[6]]]                                                   
  H          -5.046251            -5.086913             3.652144            1             0.031932    [1[6[8][1][1]]]                                             
  H          -6.052630            -5.371745             2.312971            1             0.031932    [1[6[8][1][1]]]                                             
  H          -6.693114            -4.525740             3.737371            1             0.031932    [1[6[8][1][1]]]                                             
