12

  C          -0.754698            -4.429643             3.939378            0             0.099454    [6[8[1]][1][1][1]]                                          
  O          -1.196798            -4.428082             5.254249            0            -0.597823    [8[6[1][1][1]][1]]                                          
  H          -0.395699            -4.752719             5.779728            0             0.402573    [1[8[6]]]                                                   
  H          -0.383757            -5.340087             3.635676            0             0.031932    [1[6[8][1][1]]]                                             
  H          -1.507620            -4.118996             3.190048            0             0.031932    [1[6[8][1][1]]]                                             
  H           0.031200            -3.762485             3.769299            0             0.031932    [1[6[8][1][1]]]                                             
  C          -1.039465            -5.980408            -0.633928            1             0.099454    [6[8[1]][1][1][1]]                                          
  O          -0.525125            -4.704031            -0.958731            1            -0.597823    [8[6[1][1][1]][1]]                                          
  H           0.396405            -4.876705            -1.164711            1             0.402573    [1[8[6]]]                                                   
  H          -0.893255            -6.150147             0.412700            1             0.031932    [1[6[8][1][1]]]                                             
  H          -2.104369            -6.036551            -0.840206            1             0.031932    [1[6[8][1][1]]]                                             
  H          -0.600930            -6.805543            -1.238624            1             0.031932    [1[6[8][1][1]]]                                             
