12

  C           5.369477            -6.342536            -0.441178            0             0.099454    [6[8[1]][1][1][1]]                                          
  O           5.334754            -5.019816             0.209316            0            -0.597823    [8[6[1][1][1]][1]]                                          
  H           4.689948            -4.385982            -0.258636            0             0.402573    [1[8[6]]]                                                   
  H           5.435570            -7.157379             0.285672            0             0.031932    [1[6[8][1][1]]]                                             
  H           4.490291            -6.557346            -0.960870            0             0.031932    [1[6[8][1][1]]]                                             
  H           6.075459            -6.414477            -1.304671            0             0.031932    [1[6[8][1][1]]]                                             
  C           5.976764            -2.944571             2.875113            1             0.099454    [6[8[1]][1][1][1]]                                          
  O           5.492957            -1.661611             2.561883            1            -0.597823    [8[6[1][1][1]][1]]                                          
  H           5.915873            -1.521271             1.681005            1             0.402573    [1[8[6]]]                                                   
  H           7.009396            -2.873774             3.214714            1             0.031932    [1[6[8][1][1]]]                                             
  H           5.431324            -3.376674             3.701166            1             0.031932    [1[6[8][1][1]]]                                             
  H           5.992161            -3.649090             2.055239            1             0.031932    [1[6[8][1][1]]]                                             
