12

  C          -6.988085             5.917320            -1.756806            0             0.099454    [6[8[1]][1][1][1]]                                          
  O          -5.841079             5.346315            -1.198149            0            -0.597823    [8[6[1][1][1]][1]]                                          
  H          -6.238028             4.725105            -0.596400            0             0.402573    [1[8[6]]]                                                   
  H          -7.469596             5.138823            -2.402609            0             0.031932    [1[6[8][1][1]]]                                             
  H          -7.670168             6.304700            -1.043612            0             0.031932    [1[6[8][1][1]]]                                             
  H          -6.732474             6.712058            -2.340388            0             0.031932    [1[6[8][1][1]]]                                             
  C          -5.056834             8.556647            -5.709782            1             0.099454    [6[8[1]][1][1][1]]                                          
  O          -4.640371             9.264415            -4.651773            1            -0.597823    [8[6[1][1][1]][1]]                                          
  H          -4.099275             9.889459            -5.076227            1             0.402573    [1[8[6]]]                                                   
  H          -5.362481             7.502575            -5.460635            1             0.031932    [1[6[8][1][1]]]                                             
  H          -5.837952             9.045678            -6.321058            1             0.031932    [1[6[8][1][1]]]                                             
  H          -4.262423             8.393037            -6.352012            1             0.031932    [1[6[8][1][1]]]                                             
