12

  C           1.711450            -2.320812             7.646247            0             0.099454    [6[8[1]][1][1][1]]                                          
  O           2.272455            -2.607682             6.372565            0            -0.597823    [8[6[1][1][1]][1]]                                          
  H           2.541367            -3.494958             6.384661            0             0.402573    [1[8[6]]]                                                   
  H           1.660441            -3.176239             8.294267            0             0.031932    [1[6[8][1][1]]]                                             
  H           2.251824            -1.474142             8.110296            0             0.031932    [1[6[8][1][1]]]                                             
  H           0.626260            -1.930606             7.640705            0             0.031932    [1[6[8][1][1]]]                                             
  C           5.169951            -2.392256             4.426165            1             0.099454    [6[8[1]][1][1][1]]                                          
  O           5.050276            -1.626652             5.567194            1            -0.597823    [8[6[1][1][1]][1]]                                          
  H           5.002982            -2.195026             6.310976            1             0.402573    [1[8[6]]]                                                   
  H           4.576403            -3.364558             4.442787            1             0.031932    [1[6[8][1][1]]]                                             
  H           4.923934            -1.717072             3.609020            1             0.031932    [1[6[8][1][1]]]                                             
  H           6.212556            -2.725092             4.253027            1             0.031932    [1[6[8][1][1]]]                                             
