12

  C          -8.129989            -1.571884            -2.225522            0             0.099454    [6[8[1]][1][1][1]]                                          
  O          -8.222759            -0.794738            -3.392782            0            -0.597823    [8[6[1][1][1]][1]]                                          
  H          -9.121631            -0.441350            -3.413433            0             0.402573    [1[8[6]]]                                                   
  H          -9.139452            -1.760697            -1.839982            0             0.031932    [1[6[8][1][1]]]                                             
  H          -7.694498            -2.543217            -2.506022            0             0.031932    [1[6[8][1][1]]]                                             
  H          -7.554481            -1.152967            -1.411598            0             0.031932    [1[6[8][1][1]]]                                             
  C          -6.785721            -2.843812            -5.782350            1             0.099454    [6[8[1]][1][1][1]]                                          
  O          -7.433503            -2.616658            -7.021264            1            -0.597823    [8[6[1][1][1]][1]]                                          
  H          -8.352926            -2.300453            -6.878506            1             0.402573    [1[8[6]]]                                                   
  H          -6.414651            -1.937600            -5.388781            1             0.031932    [1[6[8][1][1]]]                                             
  H          -7.427972            -3.295129            -4.999299            1             0.031932    [1[6[8][1][1]]]                                             
  H          -5.988792            -3.495680            -5.886320            1             0.031932    [1[6[8][1][1]]]                                             
