12

  C          -6.945636             3.312507            -8.402463            0             0.099454    [6[8[1]][1][1][1]]                                          
  O          -6.953330             2.354367            -7.433523            0            -0.597823    [8[6[1][1][1]][1]]                                          
  H          -6.634259             1.523126            -7.842062            0             0.402573    [1[8[6]]]                                                   
  H          -7.547421             3.051407            -9.268377            0             0.031932    [1[6[8][1][1]]]                                             
  H          -7.182945             4.348131            -8.049637            0             0.031932    [1[6[8][1][1]]]                                             
  H          -5.994893             3.351768            -8.844000            0             0.031932    [1[6[8][1][1]]]                                             
  C          -5.486069             3.512021            -4.913859            1             0.099454    [6[8[1]][1][1][1]]                                          
  O          -6.167169             2.307264            -4.603572            1            -0.597823    [8[6[1][1][1]][1]]                                          
  H          -6.701712             2.041697            -5.373229            1             0.402573    [1[8[6]]]                                                   
  H          -5.168104             4.102406            -4.051643            1             0.031932    [1[6[8][1][1]]]                                             
  H          -4.604469             3.379648            -5.458457            1             0.031932    [1[6[8][1][1]]]                                             
  H          -6.112285             4.173370            -5.467415            1             0.031932    [1[6[8][1][1]]]                                             
