12

  C          -5.946883            -9.520934             1.759639            0             0.099454    [6[8[1]][1][1][1]]                                          
  O          -6.152325            -8.209981             1.137781            0            -0.597823    [8[6[1][1][1]][1]]                                          
  H          -5.894557            -8.237036             0.209221            0             0.402573    [1[8[6]]]                                                   
  H          -6.016455            -9.419049             2.892615            0             0.031932    [1[6[8][1][1]]]                                             
  H          -6.762526            -10.186639            1.465938            0             0.031932    [1[6[8][1][1]]]                                             
  H          -4.976280            -9.949934             1.473576            0             0.031932    [1[6[8][1][1]]]                                             
  C          -5.165863            -9.581708            -2.485840            1             0.099454    [6[8[1]][1][1][1]]                                          
  O          -6.423885            -9.223285            -1.799085            1            -0.597823    [8[6[1][1][1]][1]]                                          
  H          -6.573787            -8.283563            -1.949006            1             0.402573    [1[8[6]]]                                                   
  H          -4.823366            -10.519670           -2.077877            1             0.031932    [1[6[8][1][1]]]                                             
  H          -5.296363            -9.580533            -3.532243            1             0.031932    [1[6[8][1][1]]]                                             
  H          -4.360786            -8.853469            -2.328686            1             0.031932    [1[6[8][1][1]]]                                             
