12

  C           0.090577            -8.911313             5.724493            0             0.099454    [6[8[1]][1][1][1]]                                          
  O           1.384767            -9.518821             5.789049            0            -0.597823    [8[6[1][1][1]][1]]                                          
  H           1.330785            -10.387467            6.226583            0             0.402573    [1[8[6]]]                                                   
  H          -0.151958            -8.289754             6.611243            0             0.031932    [1[6[8][1][1]]]                                             
  H           0.043024            -8.282204             4.827034            0             0.031932    [1[6[8][1][1]]]                                             
  H          -0.627127            -9.663993             5.696281            0             0.031932    [1[6[8][1][1]]]                                             
  C           3.589931            -8.780427             2.342140            1             0.099454    [6[8[1]][1][1][1]]                                          
  O           2.650353            -9.661598             2.915198            1            -0.597823    [8[6[1][1][1]][1]]                                          
  H           2.204613            -9.230959             3.598600            1             0.402573    [1[8[6]]]                                                   
  H           4.248525            -9.402743             1.656322            1             0.031932    [1[6[8][1][1]]]                                             
  H           3.164319            -8.022571             1.708616            1             0.031932    [1[6[8][1][1]]]                                             
  H           4.228216            -8.361015             3.141949            1             0.031932    [1[6[8][1][1]]]                                             
