12

  C           5.041484             0.838788            -10.238675           0             0.099454    [6[8[1]][1][1][1]]                                          
  O           5.819036             1.876236            -9.692237            0            -0.597823    [8[6[1][1][1]][1]]                                          
  H           5.582143             1.881685            -8.727786            0             0.402573    [1[8[6]]]                                                   
  H           4.053513             1.244202            -10.335477           0             0.031932    [1[6[8][1][1]]]                                             
  H           5.368006             0.435696            -11.233262           0             0.031932    [1[6[8][1][1]]]                                             
  H           4.956666            -0.013747            -9.578438            0             0.031932    [1[6[8][1][1]]]                                             
  C           8.279179            -0.130708            -6.836985            1             0.099454    [6[8[1]][1][1][1]]                                          
  O           6.940537            -0.687971            -6.867043            1            -0.597823    [8[6[1][1][1]][1]]                                          
  H           6.345890             0.019245            -6.580589            1             0.402573    [1[8[6]]]                                                   
  H           8.565146             0.242757            -5.816725            1             0.031932    [1[6[8][1][1]]]                                             
  H           9.006354            -0.914377            -7.006050            1             0.031932    [1[6[8][1][1]]]                                             
  H           8.455786             0.688963            -7.595596            1             0.031932    [1[6[8][1][1]]]                                             
