12

  C          -10.786374           -2.434926             6.102013            0             0.099454    [6[8[1]][1][1][1]]                                          
  O          -9.534967            -2.920032             6.721126            0            -0.597823    [8[6[1][1][1]][1]]                                          
  H          -9.546065            -3.876163             6.859019            0             0.402573    [1[8[6]]]                                                   
  H          -10.700096           -1.362841             6.063289            0             0.031932    [1[6[8][1][1]]]                                             
  H          -10.879818           -2.671802             5.082183            0             0.031932    [1[6[8][1][1]]]                                             
  H          -11.722517           -2.729585             6.503359            0             0.031932    [1[6[8][1][1]]]                                             
  C          -7.148623            -4.404922             7.610721            1             0.099454    [6[8[1]][1][1][1]]                                          
  O          -7.375907            -4.307510             6.230849            1            -0.597823    [8[6[1][1][1]][1]]                                          
  H          -6.488589            -4.245088             5.849165            1             0.402573    [1[8[6]]]                                                   
  H          -6.923351            -5.494273             7.993890            1             0.031932    [1[6[8][1][1]]]                                             
  H          -6.294813            -3.768090             7.952278            1             0.031932    [1[6[8][1][1]]]                                             
  H          -8.051423            -4.083976             8.151927            1             0.031932    [1[6[8][1][1]]]                                             
