12

  C          -3.235452             7.974834            -3.610997            0             0.099454    [6[8[1]][1][1][1]]                                          
  O          -2.335744             9.037216            -3.968717            0            -0.597823    [8[6[1][1][1]][1]]                                          
  H          -2.699700             9.576640            -4.691973            0             0.402573    [1[8[6]]]                                                   
  H          -3.591304             8.059104            -2.564382            0             0.031932    [1[6[8][1][1]]]                                             
  H          -4.201722             8.035616            -4.246307            0             0.031932    [1[6[8][1][1]]]                                             
  H          -2.818901             6.977032            -3.763111            0             0.031932    [1[6[8][1][1]]]                                             
  C          -2.712632             10.168565            0.735947            1             0.099454    [6[8[1]][1][1][1]]                                          
  O          -1.306672             10.366043            0.611113            1            -0.597823    [8[6[1][1][1]][1]]                                          
  H          -1.090374             10.729616           -0.244116            1             0.402573    [1[8[6]]]                                                   
  H          -3.258851             11.101495            0.569971            1             0.031932    [1[6[8][1][1]]]                                             
  H          -3.092900             9.536533            -0.103540            1             0.031932    [1[6[8][1][1]]]                                             
  H          -2.984458             9.562569             1.653365            1             0.031932    [1[6[8][1][1]]]                                             
