12

  C          -2.069686            -4.856370             7.588337            0             0.099454    [6[8[1]][1][1][1]]                                          
  O          -1.982961            -6.087089             6.809619            0            -0.597823    [8[6[1][1][1]][1]]                                          
  H          -1.495938            -5.822914             6.054951            0             0.402573    [1[8[6]]]                                                   
  H          -3.031216            -4.309157             7.269200            0             0.031932    [1[6[8][1][1]]]                                             
  H          -2.211093            -5.128542             8.600065            0             0.031932    [1[6[8][1][1]]]                                             
  H          -1.154506            -4.294237             7.527639            0             0.031932    [1[6[8][1][1]]]                                             
  C          -0.570315            -5.366572             2.859844            1             0.099454    [6[8[1]][1][1][1]]                                          
  O          -1.542925            -5.824742             3.755910            1            -0.597823    [8[6[1][1][1]][1]]                                          
  H          -2.367549            -5.945227             3.279267            1             0.402573    [1[8[6]]]                                                   
  H          -0.680391            -5.851199             1.865177            1             0.031932    [1[6[8][1][1]]]                                             
  H          -0.741280            -4.326859             2.602505            1             0.031932    [1[6[8][1][1]]]                                             
  H           0.429740            -5.547749             3.293926            1             0.031932    [1[6[8][1][1]]]                                             
