12

  C          -4.571858            -8.509217             7.080362            0             0.099454    [6[8[1]][1][1][1]]                                          
  O          -3.583468            -7.449682             7.394431            0            -0.597823    [8[6[1][1][1]][1]]                                          
  H          -3.572475            -6.902586             6.640899            0             0.402573    [1[8[6]]]                                                   
  H          -4.180799            -9.176255             6.298429            0             0.031932    [1[6[8][1][1]]]                                             
  H          -4.673121            -9.129860             7.950470            0             0.031932    [1[6[8][1][1]]]                                             
  H          -5.476760            -8.065264             6.898514            0             0.031932    [1[6[8][1][1]]]                                             
  C          -3.712011            -5.777773             10.220480           1             0.099454    [6[8[1]][1][1][1]]                                          
  O          -3.182050            -5.154310             11.308558           1            -0.597823    [8[6[1][1][1]][1]]                                          
  H          -3.078818            -5.835149             12.033996           1             0.402573    [1[8[6]]]                                                   
  H          -4.135902            -4.986373             9.601358            1             0.031932    [1[6[8][1][1]]]                                             
  H          -2.973094            -6.301456             9.614988            1             0.031932    [1[6[8][1][1]]]                                             
  H          -4.515490            -6.388206             10.536584           1             0.031932    [1[6[8][1][1]]]                                             
