14

C  0.88370000           0.02818000          -0.30433000         
C  2.39680000           0.01400000          -0.10732000         
C  2.78499000           0.64205000           1.23585000         
C  4.29973000           0.62721000           1.43153000         
Br  4.75950000           1.42633000           3.13558000         
H  0.63119000          -0.43165000          -1.28297000         
H  0.50262000           1.07161000          -0.29273000         
H  0.38410000          -0.55190000           0.50067000         
H  2.87195000           0.58191000          -0.93688000         
H  2.75369000          -1.03844000          -0.14505000         
H  2.30730000           0.07230000           2.06284000         
H  2.42556000           1.69387000           1.27046000         
H  4.79702000           1.20525000           0.62365000         
H  4.67874000          -0.41693000           1.41630000         
