12

  C           9.028161            -7.584521             4.100614            0             0.099454    [6[8[1]][1][1][1]]                                          
  O           8.192791            -6.828802             5.014434            0            -0.597823    [8[6[1][1][1]][1]]                                          
  H           7.594326            -6.269406             4.519792            0             0.402573    [1[8[6]]]                                                   
  H           8.513725            -7.939866             3.227101            0             0.031932    [1[6[8][1][1]]]                                             
  H           9.834166            -6.927564             3.751375            0             0.031932    [1[6[8][1][1]]]                                             
  H           9.510038            -8.408056             4.560258            0             0.031932    [1[6[8][1][1]]]                                             
  C           8.307011            -7.647958             8.749003            1             0.099454    [6[8[1]][1][1][1]]                                          
  O           7.273924            -7.553112             7.776317            1            -0.597823    [8[6[1][1][1]][1]]                                          
  H           7.664353            -7.568868             6.900975            1             0.402573    [1[8[6]]]                                                   
  H           7.960252            -7.834441             9.762844            1             0.031932    [1[6[8][1][1]]]                                             
  H           9.044794            -8.341468             8.415680            1             0.031932    [1[6[8][1][1]]]                                             
  H           8.861906            -6.732982             8.793555            1             0.031932    [1[6[8][1][1]]]                                             
