12

  C          -5.713303             3.277059            -8.206859            0             0.099454    [6[8[1]][1][1][1]]                                          
  O          -6.575882             4.002140            -9.087168            0            -0.597823    [8[6[1][1][1]][1]]                                          
  H          -6.399172             4.927764            -9.038590            0             0.402573    [1[8[6]]]                                                   
  H          -5.820958             3.609487            -7.198915            0             0.031932    [1[6[8][1][1]]]                                             
  H          -5.852943             2.193454            -8.268895            0             0.031932    [1[6[8][1][1]]]                                             
  H          -4.677271             3.379742            -8.473651            0             0.031932    [1[6[8][1][1]]]                                             
  C          -1.889414             5.387526            -8.047681            1             0.099454    [6[8[1]][1][1][1]]                                          
  O          -2.774712             5.569098            -9.119193            1            -0.597823    [8[6[1][1][1]][1]]                                          
  H          -3.598853             5.089498            -8.957806            1             0.402573    [1[8[6]]]                                                   
  H          -2.384633             4.907691            -7.157423            1             0.031932    [1[6[8][1][1]]]                                             
  H          -1.104034             4.642163            -8.372407            1             0.031932    [1[6[8][1][1]]]                                             
  H          -1.352291             6.278624            -7.726872            1             0.031932    [1[6[8][1][1]]]                                             
