12

  C          -0.144222            -6.388239             7.109689            0             0.099454    [6[8[1]][1][1][1]]                                          
  O           0.615973            -6.573767             5.942439            0            -0.597823    [8[6[1][1][1]][1]]                                          
  H           0.207923            -7.303028             5.449768            0             0.402573    [1[8[6]]]                                                   
  H           0.185809            -5.543396             7.793913            0             0.031932    [1[6[8][1][1]]]                                             
  H          -1.164782            -6.128827             6.762129            0             0.031932    [1[6[8][1][1]]]                                             
  H          -0.143347            -7.286734             7.691108            0             0.031932    [1[6[8][1][1]]]                                             
  C           1.196391            -3.519930             3.726010            1             0.099454    [6[8[1]][1][1][1]]                                          
  O           1.924371            -4.135382             4.747398            1            -0.597823    [8[6[1][1][1]][1]]                                          
  H           1.270023            -4.575670             5.247882            1             0.402573    [1[8[6]]]                                                   
  H           0.571030            -2.721266             4.153416            1             0.031932    [1[6[8][1][1]]]                                             
  H           1.868693            -3.102085             2.976502            1             0.031932    [1[6[8][1][1]]]                                             
  H           0.354077            -4.202722             3.244190            1             0.031932    [1[6[8][1][1]]]                                             
