12

  C          -6.460874             11.317236            1.150653            0             0.099454    [6[8[1]][1][1][1]]                                          
  O          -5.386241             11.510456            1.972449            0            -0.597823    [8[6[1][1][1]][1]]                                          
  H          -4.744983             10.797700            1.904435            0             0.402573    [1[8[6]]]                                                   
  H          -6.718436             10.244920            1.063984            0             0.031932    [1[6[8][1][1]]]                                             
  H          -7.330148             11.972840            1.477804            0             0.031932    [1[6[8][1][1]]]                                             
  H          -6.265406             11.552220            0.117566            0             0.031932    [1[6[8][1][1]]]                                             
  C          -7.108575             6.913722            -0.857616            1             0.099454    [6[8[1]][1][1][1]]                                          
  O          -5.910933             6.151993            -0.758104            1            -0.597823    [8[6[1][1][1]][1]]                                          
  H          -6.108608             5.514156             0.021846            1             0.402573    [1[8[6]]]                                                   
  H          -8.052278             6.348833            -0.737678            1             0.031932    [1[6[8][1][1]]]                                             
  H          -7.212517             7.592448            -0.076732            1             0.031932    [1[6[8][1][1]]]                                             
  H          -7.252339             7.360240            -1.857203            1             0.031932    [1[6[8][1][1]]]                                             
