12

  C           3.227038             0.299315             2.583247            0             0.099454    [6[8[1]][1][1][1]]                                          
  O           2.666419             0.055697             1.319139            0            -0.597823    [8[6[1][1][1]][1]]                                          
  H           2.532418            -0.879725             1.086573            0             0.402573    [1[8[6]]]                                                   
  H           4.019190            -0.355166             2.838296            0             0.031932    [1[6[8][1][1]]]                                             
  H           3.630524             1.336282             2.668777            0             0.031932    [1[6[8][1][1]]]                                             
  H           2.489073             0.331264             3.443880            0             0.031932    [1[6[8][1][1]]]                                             
  C           4.675669            -2.819953            -2.455573            1             0.099454    [6[8[1]][1][1][1]]                                          
  O           4.967275            -2.728420            -1.051334            1            -0.597823    [8[6[1][1][1]][1]]                                          
  H           5.809846            -3.177151            -0.928841            1             0.402573    [1[8[6]]]                                                   
  H           3.781209            -2.190699            -2.703473            1             0.031932    [1[6[8][1][1]]]                                             
  H           5.494284            -2.357504            -3.049618            1             0.031932    [1[6[8][1][1]]]                                             
  H           4.571858            -3.756048            -2.910539            1             0.031932    [1[6[8][1][1]]]                                             
