12

  C          -7.942409            -2.379003            -9.459658            0             0.099454    [6[8[1]][1][1][1]]                                          
  O          -7.867683            -3.795945            -9.391160            0            -0.597823    [8[6[1][1][1]][1]]                                          
  H          -8.719740            -4.186714            -9.465420            0             0.402573    [1[8[6]]]                                                   
  H          -7.748901            -1.924920            -8.467208            0             0.031932    [1[6[8][1][1]]]                                             
  H          -7.233413            -1.909138            -10.170256           0             0.031932    [1[6[8][1][1]]]                                             
  H          -8.967834            -2.145940            -9.738359            0             0.031932    [1[6[8][1][1]]]                                             
  C          -9.373559             0.297392            -6.536490            1             0.099454    [6[8[1]][1][1][1]]                                          
  O          -9.456627             1.047933            -5.265026            1            -0.597823    [8[6[1][1][1]][1]]                                          
  H          -9.619971             0.582751            -4.399038            1             0.402573    [1[8[6]]]                                                   
  H          -8.905925            -0.694538            -6.512490            1             0.031932    [1[6[8][1][1]]]                                             
  H          -10.378640            0.221856            -6.997461            1             0.031932    [1[6[8][1][1]]]                                             
  H          -8.830165             0.846990            -7.252988            1             0.031932    [1[6[8][1][1]]]                                             
