12

  C          -1.761067             5.722091            -2.002277            0             0.099454    [6[8[1]][1][1][1]]                                          
  O          -1.949604             4.450320            -2.319201            0            -0.597823    [8[6[1][1][1]][1]]                                          
  H          -2.743328             3.992807            -2.075747            0             0.402573    [1[8[6]]]                                                   
  H          -2.692750             6.144057            -1.678658            0             0.031932    [1[6[8][1][1]]]                                             
  H          -0.954174             5.871586            -1.341224            0             0.031932    [1[6[8][1][1]]]                                             
  H          -1.561292             6.309232            -2.952997            0             0.031932    [1[6[8][1][1]]]                                             
  C          -2.096116             1.362651            -3.714069            1             0.099454    [6[8[1]][1][1][1]]                                          
  O          -1.653000             2.524179            -4.317174            1            -0.597823    [8[6[1][1][1]][1]]                                          
  H          -1.444100             3.157896            -3.600803            1             0.402573    [1[8[6]]]                                                   
  H          -1.388523             0.806716            -3.030014            1             0.031932    [1[6[8][1][1]]]                                             
  H          -3.077310             1.420086            -3.206591            1             0.031932    [1[6[8][1][1]]]                                             
  H          -2.228905             0.632296            -4.545522            1             0.031932    [1[6[8][1][1]]]                                             
