12

  C          -8.336969            -4.600054             6.961619            0             0.099454    [6[8[1]][1][1][1]]                                          
  O          -7.406997            -4.718792             5.976221            0            -0.597823    [8[6[1][1][1]][1]]                                          
  H          -6.557219            -5.068828             6.345814            0             0.402573    [1[8[6]]]                                                   
  H          -9.026821            -3.757067             6.800029            0             0.031932    [1[6[8][1][1]]]                                             
  H          -9.068774            -5.485411             6.969378            0             0.031932    [1[6[8][1][1]]]                                             
  H          -7.848887            -4.496328             7.950912            0             0.031932    [1[6[8][1][1]]]                                             
  C          -8.948701            -0.439402             5.987862            1             0.099454    [6[8[1]][1][1][1]]                                          
  O          -9.115364            -0.692188             4.565162            1            -0.597823    [8[6[1][1][1]][1]]                                          
  H          -9.844506            -1.290664             4.538672            1             0.402573    [1[8[6]]]                                                   
  H          -9.350161             0.522866             6.290320            1             0.031932    [1[6[8][1][1]]]                                             
  H          -9.377751            -1.276286             6.651318            1             0.031932    [1[6[8][1][1]]]                                             
  H          -7.851956            -0.349181             6.148207            1             0.031932    [1[6[8][1][1]]]                                             
