12

  C          -3.823675             4.289136            -8.766144            0             0.099454    [6[8[1]][1][1][1]]                                          
  O          -4.377185             5.267155            -9.559197            0            -0.597823    [8[6[1][1][1]][1]]                                          
  H          -4.576584             6.000657            -8.961619            0             0.402573    [1[8[6]]]                                                   
  H          -2.831440             4.544331            -8.466993            0             0.031932    [1[6[8][1][1]]]                                             
  H          -4.245802             4.234392            -7.782589            0             0.031932    [1[6[8][1][1]]]                                             
  H          -3.906820             3.308003            -9.284825            0             0.031932    [1[6[8][1][1]]]                                             
  C          -8.023118             5.970073            -7.301579            1             0.099454    [6[8[1]][1][1][1]]                                          
  O          -7.208899             5.748031            -6.199433            1            -0.597823    [8[6[1][1][1]][1]]                                          
  H          -7.582233             5.100643            -5.540227            1             0.402573    [1[8[6]]]                                                   
  H          -8.491772             6.984259            -7.204203            1             0.031932    [1[6[8][1][1]]]                                             
  H          -7.494694             5.832346            -8.256467            1             0.031932    [1[6[8][1][1]]]                                             
  H          -8.841849             5.215604            -7.301558            1             0.031932    [1[6[8][1][1]]]                                             
