12

  C          -2.485529             9.493496             4.658213            0             0.099454    [6[8[1]][1][1][1]]                                          
  O          -1.428511             10.376600            4.866788            0            -0.597823    [8[6[1][1][1]][1]]                                          
  H          -0.688804             10.184425            4.315683            0             0.402573    [1[8[6]]]                                                   
  H          -3.403345             9.887249             5.169143            0             0.031932    [1[6[8][1][1]]]                                             
  H          -2.769642             9.542290             3.660681            0             0.031932    [1[6[8][1][1]]]                                             
  H          -2.396257             8.442123             4.870287            0             0.031932    [1[6[8][1][1]]]                                             
  C          -1.039035             11.448119            8.283206            1             0.099454    [6[8[1]][1][1][1]]                                          
  O          -1.007394             10.095715            7.774698            1            -0.597823    [8[6[1][1][1]][1]]                                          
  H          -1.032655             10.125533            6.817032            1             0.402573    [1[8[6]]]                                                   
  H          -0.811910             11.535558            9.390685            1             0.031932    [1[6[8][1][1]]]                                             
  H          -0.388670             12.178366            7.758844            1             0.031932    [1[6[8][1][1]]]                                             
  H          -2.051492             11.909911            8.203198            1             0.031932    [1[6[8][1][1]]]                                             
