12

  C           0.999467            -9.027304            -3.912011            0             0.099454    [6[8[1]][1][1][1]]                                          
  O           2.186414            -9.130388            -3.186209            0            -0.597823    [8[6[1][1][1]][1]]                                          
  H           2.083546            -9.885682            -2.567494            0             0.402573    [1[8[6]]]                                                   
  H           0.950091            -9.809537            -4.582821            0             0.031932    [1[6[8][1][1]]]                                             
  H           0.089306            -9.087572            -3.267712            0             0.031932    [1[6[8][1][1]]]                                             
  H           0.963477            -8.154280            -4.573107            0             0.031932    [1[6[8][1][1]]]                                             
  C          -1.319014            -5.669545            -6.013375            1             0.099454    [6[8[1]][1][1][1]]                                          
  O          -0.766400            -6.470160            -7.025123            1            -0.597823    [8[6[1][1][1]][1]]                                          
  H          -1.405077            -6.444205            -7.758371            1             0.402573    [1[8[6]]]                                                   
  H          -1.474716            -4.663383            -6.328480            1             0.031932    [1[6[8][1][1]]]                                             
  H          -2.305407            -5.954150            -5.652311            1             0.031932    [1[6[8][1][1]]]                                             
  H          -0.687873            -5.720314            -5.177319            1             0.031932    [1[6[8][1][1]]]                                             
