12

  C           4.061097             9.985144            -6.070502            0             0.099454    [6[8[1]][1][1][1]]                                          
  O           3.441151             9.246290            -7.049608            0            -0.597823    [8[6[1][1][1]][1]]                                          
  H           2.507525             9.449036            -6.878413            0             0.402573    [1[8[6]]]                                                   
  H           5.166325             9.778828            -5.975345            0             0.031932    [1[6[8][1][1]]]                                             
  H           4.055554             11.054834           -6.343649            0             0.031932    [1[6[8][1][1]]]                                             
  H           3.619307             9.736825            -5.105719            0             0.031932    [1[6[8][1][1]]]                                             
  C           3.238427             6.178181            -9.426286            1             0.099454    [6[8[1]][1][1][1]]                                          
  O           4.048945             5.033788            -9.056436            1            -0.597823    [8[6[1][1][1]][1]]                                          
  H           4.846479             5.325362            -8.628553            1             0.402573    [1[8[6]]]                                                   
  H           2.895541             6.731841            -8.572065            1             0.031932    [1[6[8][1][1]]]                                             
  H           3.792113             6.883283            -9.977120            1             0.031932    [1[6[8][1][1]]]                                             
  H           2.425263             5.892164            -10.025981           1             0.031932    [1[6[8][1][1]]]                                             
