12

  C          -2.236262            -7.219065            -3.038028            0             0.099454    [6[8[1]][1][1][1]]                                          
  O          -2.089203            -8.488530            -3.702297            0            -0.597823    [8[6[1][1][1]][1]]                                          
  H          -2.620605            -8.479153            -4.503310            0             0.402573    [1[8[6]]]                                                   
  H          -1.906942            -6.405743            -3.624474            0             0.031932    [1[6[8][1][1]]]                                             
  H          -3.225869            -6.961767            -2.730361            0             0.031932    [1[6[8][1][1]]]                                             
  H          -1.644495            -7.133655            -2.155844            0             0.031932    [1[6[8][1][1]]]                                             
  C          -5.665758            -4.689822            -2.360224            1             0.099454    [6[8[1]][1][1][1]]                                          
  O          -6.884275            -4.148201            -2.717216            1            -0.597823    [8[6[1][1][1]][1]]                                          
  H          -7.629676            -4.652212            -2.280680            1             0.402573    [1[8[6]]]                                                   
  H          -4.944511            -4.627288            -3.154112            1             0.031932    [1[6[8][1][1]]]                                             
  H          -5.203577            -4.051282            -1.505271            1             0.031932    [1[6[8][1][1]]]                                             
  H          -5.827950            -5.648376            -1.913046            1             0.031932    [1[6[8][1][1]]]                                             
