12

  C          -4.983724            -1.861540            -7.037725            0             0.099454    [6[8[1]][1][1][1]]                                          
  O          -5.308556            -0.500746            -6.993364            0            -0.597823    [8[6[1][1][1]][1]]                                          
  H          -5.230599            -0.272961            -7.890385            0             0.402573    [1[8[6]]]                                                   
  H          -4.141318            -2.148880            -7.659056            0             0.031932    [1[6[8][1][1]]]                                             
  H          -4.764248            -2.337265            -6.067641            0             0.031932    [1[6[8][1][1]]]                                             
  H          -5.873911            -2.396272            -7.501663            0             0.031932    [1[6[8][1][1]]]                                             
  C          -4.685835            -4.218706            -1.905755            1             0.099454    [6[8[1]][1][1][1]]                                          
  O          -5.620403            -4.875687            -1.045612            1            -0.597823    [8[6[1][1][1]][1]]                                          
  H          -6.175920            -5.416958            -1.549472            1             0.402573    [1[8[6]]]                                                   
  H          -3.776749            -4.781768            -1.666579            1             0.031932    [1[6[8][1][1]]]                                             
  H          -4.911927            -4.250010            -2.974445            1             0.031932    [1[6[8][1][1]]]                                             
  H          -4.583469            -3.144852            -1.605303            1             0.031932    [1[6[8][1][1]]]                                             
