12

  C           10.841088           -7.127061            -6.891285            0             0.099454    [6[8[1]][1][1][1]]                                          
  O           10.495546           -7.092162            -5.484353            0            -0.597823    [8[6[1][1][1]][1]]                                          
  H           9.956987            -6.291068            -5.245316            0             0.402573    [1[8[6]]]                                                   
  H           9.927392            -6.872766            -7.502368            0             0.031932    [1[6[8][1][1]]]                                             
  H           11.640231           -6.359361            -7.120319            0             0.031932    [1[6[8][1][1]]]                                             
  H           11.277844           -8.122326            -7.267426            0             0.031932    [1[6[8][1][1]]]                                             
  C           7.607285            -5.451688            -4.193756            1             0.099454    [6[8[1]][1][1][1]]                                          
  O           8.840122            -5.024464            -4.757572            1            -0.597823    [8[6[1][1][1]][1]]                                          
  H           9.236338            -4.323014            -4.290223            1             0.402573    [1[8[6]]]                                                   
  H           7.692302            -5.746558            -3.175119            1             0.031932    [1[6[8][1][1]]]                                             
  H           6.876736            -4.628547            -4.298297            1             0.031932    [1[6[8][1][1]]]                                             
  H           7.263589            -6.399799            -4.644602            1             0.031932    [1[6[8][1][1]]]                                             
