12

  C          -9.038120            -4.940039            -9.359622            0             0.099454    [6[8[1]][1][1][1]]                                          
  O          -8.941771            -4.116648            -10.481134           0            -0.597823    [8[6[1][1][1]][1]]                                          
  H          -8.041680            -3.849883            -10.587867           0             0.402573    [1[8[6]]]                                                   
  H          -9.704550            -5.762499            -9.452539            0             0.031932    [1[6[8][1][1]]]                                             
  H          -8.020437            -5.364017            -9.158092            0             0.031932    [1[6[8][1][1]]]                                             
  H          -9.342854            -4.350569            -8.499982            0             0.031932    [1[6[8][1][1]]]                                             
  C          -8.330272            -4.733725            -5.178958            1             0.099454    [6[8[1]][1][1][1]]                                          
  O          -7.579750            -5.755895            -5.802438            1            -0.597823    [8[6[1][1][1]][1]]                                          
  H          -6.968463            -6.116029            -5.166466            1             0.402573    [1[8[6]]]                                                   
  H          -8.568165            -5.064110            -4.182647            1             0.031932    [1[6[8][1][1]]]                                             
  H          -7.695817            -3.836312            -5.197595            1             0.031932    [1[6[8][1][1]]]                                             
  H          -9.305360            -4.543888            -5.743510            1             0.031932    [1[6[8][1][1]]]                                             
