12

  C           2.311494            -9.830904            -8.216563            0             0.099454    [6[8[1]][1][1][1]]                                          
  O           3.558891            -10.484770           -8.480704            0            -0.597823    [8[6[1][1][1]][1]]                                          
  H           3.941405            -10.762820           -7.664795            0             0.402573    [1[8[6]]]                                                   
  H           2.383091            -9.009173            -7.449427            0             0.031932    [1[6[8][1][1]]]                                             
  H           1.831679            -9.423599            -9.122781            0             0.031932    [1[6[8][1][1]]]                                             
  H           1.578314            -10.570983           -7.892508            0             0.031932    [1[6[8][1][1]]]                                             
  C           1.367923            -6.330460            -10.176826           1             0.099454    [6[8[1]][1][1][1]]                                          
  O           0.599920            -7.321826            -10.790082           1            -0.597823    [8[6[1][1][1]][1]]                                          
  H          -0.023357            -7.777559            -10.239975           1             0.402573    [1[8[6]]]                                                   
  H           2.408693            -6.273177            -10.548830           1             0.031932    [1[6[8][1][1]]]                                             
  H           1.022412            -5.304323            -10.160422           1             0.031932    [1[6[8][1][1]]]                                             
  H           1.565223            -6.564865            -9.102206            1             0.031932    [1[6[8][1][1]]]                                             
