22

C  3.71406000          -1.17809000           0.33081000         
C  4.31713000          -0.19009000           1.33191000         
N  4.70644000           1.10616000           0.72225000         
C  5.09429000           2.05751000           1.79369000         
C  5.32931000           3.48274000           1.28819000         
C  5.69670000           0.99073000          -0.38231000         
C  7.06155000           0.43373000           0.04150000         
H  3.36922000          -2.08356000           0.87379000         
H  4.46089000          -1.51322000          -0.41641000         
H  2.84443000          -0.71901000          -0.18521000         
H  5.17615000          -0.66275000           1.85558000         
H  3.52683000          -0.00608000           2.09360000         
H  5.99238000           1.70072000           2.34300000         
H  4.26291000           2.12750000           2.53031000         
H  5.52797000           4.14936000           2.15402000         
H  4.43008000           3.85305000           0.75195000         
H  6.21448000           3.54206000           0.62377000         
H  5.84378000           1.97734000          -0.86432000         
H  5.28640000           0.35969000          -1.19528000         
H  7.72486000           0.38703000          -0.84764000         
H  6.96756000          -0.59317000           0.44788000         
H  7.54728000           1.08925000           0.79182000         
