6

  C          -3.993958            -0.705394            -4.450815            0             0.089063    [6[8[1]][1][1][1]]                                          
  O          -5.159962            -0.121369            -5.009932            0            -0.604789    [8[6[1][1][1]][1]]                                          
  H          -5.361612            -0.513829            -5.881007            0             0.406250    [1[8[6]]]                                                   
  H          -4.100488            -1.583717            -3.860684            0             0.036492    [1[6[8][1][1]]]                                             
  H          -3.242868            -0.844641            -5.215061            0             0.036492    [1[6[8][1][1]]]                                             
  H          -3.585811             0.041612            -3.825818            0             0.036492    [1[6[8][1][1]]]                                             
