12

  C          -4.021581             2.799748            -3.951247            0             0.099454    [6[8[1]][1][1][1]]                                          
  O          -3.968984             3.408857            -2.693875            0            -0.597823    [8[6[1][1][1]][1]]                                          
  H          -3.428997             4.133400            -2.976944            0             0.402573    [1[8[6]]]                                                   
  H          -4.837682             2.116741            -4.115847            0             0.031932    [1[6[8][1][1]]]                                             
  H          -4.388551             3.544017            -4.698766            0             0.031932    [1[6[8][1][1]]]                                             
  H          -3.031499             2.512948            -4.232440            0             0.031932    [1[6[8][1][1]]]                                             
  C           0.867542             3.912928            -3.182663            1             0.099454    [6[8[1]][1][1][1]]                                          
  O           2.242398             3.624090            -3.323896            1            -0.597823    [8[6[1][1][1]][1]]                                          
  H           2.326476             3.199194            -4.209567            1             0.402573    [1[8[6]]]                                                   
  H           0.454290             2.951350            -2.958725            1             0.031932    [1[6[8][1][1]]]                                             
  H           0.678797             4.536893            -2.275241            1             0.031932    [1[6[8][1][1]]]                                             
  H           0.363630             4.368854            -4.072581            1             0.031932    [1[6[8][1][1]]]                                             
