12

  C           5.651281            -6.607152            -7.131808            0             0.099454    [6[8[1]][1][1][1]]                                          
  O           4.421029            -6.172387            -6.635053            0            -0.597823    [8[6[1][1][1]][1]]                                          
  H           3.846128            -6.941923            -6.443546            0             0.402573    [1[8[6]]]                                                   
  H           6.331579            -5.736460            -7.229165            0             0.031932    [1[6[8][1][1]]]                                             
  H           6.041744            -7.382705            -6.519006            0             0.031932    [1[6[8][1][1]]]                                             
  H           5.543523            -7.079936            -8.062609            0             0.031932    [1[6[8][1][1]]]                                             
  C           2.634205            -1.461037            -7.799375            1             0.099454    [6[8[1]][1][1][1]]                                          
  O           2.958779            -2.531080            -6.959530            1            -0.597823    [8[6[1][1][1]][1]]                                          
  H           2.214326            -3.106339            -6.932803            1             0.402573    [1[8[6]]]                                                   
  H           2.605033            -1.685040            -8.822651            1             0.031932    [1[6[8][1][1]]]                                             
  H           1.682317            -1.114751            -7.452413            1             0.031932    [1[6[8][1][1]]]                                             
  H           3.331367            -0.619623            -7.696719            1             0.031932    [1[6[8][1][1]]]                                             
