12

  C           0.729532             5.280987             0.792221            0             0.099454    [6[8[1]][1][1][1]]                                          
  O           0.011848             4.968392            -0.373084            0            -0.597823    [8[6[1][1][1]][1]]                                          
  H          -0.194236             5.859441            -0.599549            0             0.402573    [1[8[6]]]                                                   
  H           1.347677             4.466694             1.117791            0             0.031932    [1[6[8][1][1]]]                                             
  H           1.488634             6.100130             0.576506            0             0.031932    [1[6[8][1][1]]]                                             
  H          -0.035568             5.478909             1.575330            0             0.031932    [1[6[8][1][1]]]                                             
  C          -3.322712             4.496069            -1.381422            1             0.099454    [6[8[1]][1][1][1]]                                          
  O          -4.046440             3.672575            -2.286686            1            -0.597823    [8[6[1][1][1]][1]]                                          
  H          -4.540441             2.947560            -1.866418            1             0.402573    [1[8[6]]]                                                   
  H          -2.791277             5.191939            -2.030407            1             0.031932    [1[6[8][1][1]]]                                             
  H          -4.010575             5.026944            -0.666010            1             0.031932    [1[6[8][1][1]]]                                             
  H          -2.645470             3.961505            -0.674929            1             0.031932    [1[6[8][1][1]]]                                             
