12

  C           5.639889            -2.002316            -10.846133           0             0.099454    [6[8[1]][1][1][1]]                                          
  O           6.433753            -3.143011            -10.785352           0            -0.597823    [8[6[1][1][1]][1]]                                          
  H           7.334829            -3.003655            -11.137374           0             0.402573    [1[8[6]]]                                                   
  H           5.024231            -1.919732            -11.762310           0             0.031932    [1[6[8][1][1]]]                                             
  H           4.985736            -1.933591            -9.979447            0             0.031932    [1[6[8][1][1]]]                                             
  H           6.210420            -1.078636            -10.743734           0             0.031932    [1[6[8][1][1]]]                                             
  C           9.460644            -3.791369            -8.790349            1             0.099454    [6[8[1]][1][1][1]]                                          
  O           9.723722            -4.555290            -9.940950            1            -0.597823    [8[6[1][1][1]][1]]                                          
  H           10.000357           -3.939135            -10.597525           1             0.402573    [1[8[6]]]                                                   
  H           8.413790            -3.319582            -8.752754            1             0.031932    [1[6[8][1][1]]]                                             
  H           9.487116            -4.471365            -7.986285            1             0.031932    [1[6[8][1][1]]]                                             
  H           10.268471           -3.035572            -8.522973            1             0.031932    [1[6[8][1][1]]]                                             
