12

  C          -8.188592             6.299989             8.631116            0             0.099454    [6[8[1]][1][1][1]]                                          
  O          -7.155412             5.502019             8.031139            0            -0.597823    [8[6[1][1][1]][1]]                                          
  H          -6.397915             6.059291             7.795830            0             0.402573    [1[8[6]]]                                                   
  H          -7.792349             7.169263             9.225792            0             0.031932    [1[6[8][1][1]]]                                             
  H          -9.011123             6.514553             7.862433            0             0.031932    [1[6[8][1][1]]]                                             
  H          -8.740029             5.735765             9.411922            0             0.031932    [1[6[8][1][1]]]                                             
  C          -4.602138             1.634884             6.062380            1             0.099454    [6[8[1]][1][1][1]]                                          
  O          -5.510830             2.685958             5.751689            1            -0.597823    [8[6[1][1][1]][1]]                                          
  H          -5.954040             2.791662             6.614522            1             0.402573    [1[8[6]]]                                                   
  H          -5.100692             0.938811             6.756365            1             0.031932    [1[6[8][1][1]]]                                             
  H          -4.443054             0.931583             5.176692            1             0.031932    [1[6[8][1][1]]]                                             
  H          -3.641260             1.881957             6.524378            1             0.031932    [1[6[8][1][1]]]                                             
