12

  C          -4.988998             9.601026            -3.583272            0             0.099454    [6[8[1]][1][1][1]]                                          
  O          -3.625614             9.389035            -3.176934            0            -0.597823    [8[6[1][1][1]][1]]                                          
  H          -3.637029             9.435312            -2.249069            0             0.402573    [1[8[6]]]                                                   
  H          -5.701993             9.682365            -2.747060            0             0.031932    [1[6[8][1][1]]]                                             
  H          -5.095622             10.449238           -4.301233            0             0.031932    [1[6[8][1][1]]]                                             
  H          -5.365626             8.684799            -4.130717            0             0.031932    [1[6[8][1][1]]]                                             
  C          -5.029409             7.140307             0.230645            1             0.099454    [6[8[1]][1][1][1]]                                          
  O          -4.528668             6.399500            -0.843343            1            -0.597823    [8[6[1][1][1]][1]]                                          
  H          -5.133241             6.355944            -1.571770            1             0.402573    [1[8[6]]]                                                   
  H          -4.607579             8.125163             0.355896            1             0.031932    [1[6[8][1][1]]]                                             
  H          -6.080625             7.279738            -0.019512            1             0.031932    [1[6[8][1][1]]]                                             
  H          -5.097532             6.494888             1.135845            1             0.031932    [1[6[8][1][1]]]                                             
