12

  C           1.559900            -2.722183            -4.387843            0             0.099454    [6[8[1]][1][1][1]]                                          
  O           1.024097            -3.110512            -3.120615            0            -0.597823    [8[6[1][1][1]][1]]                                          
  H           0.241665            -2.671256            -2.909754            0             0.402573    [1[8[6]]]                                                   
  H           2.034390            -3.613840            -4.841094            0             0.031932    [1[6[8][1][1]]]                                             
  H           0.813583            -2.312463            -5.113704            0             0.031932    [1[6[8][1][1]]]                                             
  H           2.363234            -2.014412            -4.232848            0             0.031932    [1[6[8][1][1]]]                                             
  C           1.936393            -0.771013            -5.484556            1             0.099454    [6[8[1]][1][1][1]]                                          
  O           0.630137            -0.634655            -5.025731            1            -0.597823    [8[6[1][1][1]][1]]                                          
  H          -0.025809            -0.977077            -5.639534            1             0.402573    [1[8[6]]]                                                   
  H           2.164730            -1.840274            -5.824897            1             0.031932    [1[6[8][1][1]]]                                             
  H           2.098250             0.000665            -6.269158            1             0.031932    [1[6[8][1][1]]]                                             
  H           2.625452            -0.481756            -4.691248            1             0.031932    [1[6[8][1][1]]]                                             
