12

  C          -8.129989            -1.571884            -2.225522            0             0.099454    [6[8[1]][1][1][1]]                                          
  O          -8.222759            -0.794738            -3.392782            0            -0.597823    [8[6[1][1][1]][1]]                                          
  H          -9.121631            -0.441350            -3.413433            0             0.402573    [1[8[6]]]                                                   
  H          -9.139452            -1.760697            -1.839982            0             0.031932    [1[6[8][1][1]]]                                             
  H          -7.694498            -2.543217            -2.506022            0             0.031932    [1[6[8][1][1]]]                                             
  H          -7.554481            -1.152967            -1.411598            0             0.031932    [1[6[8][1][1]]]                                             
  C          -4.078479            -2.248424            -2.195050            1             0.099454    [6[8[1]][1][1][1]]                                          
  O          -4.903132            -3.303661            -2.540773            1            -0.597823    [8[6[1][1][1]][1]]                                          
  H          -5.809840            -3.251913            -2.376975            1             0.402573    [1[8[6]]]                                                   
  H          -3.658721            -2.507381            -1.205279            1             0.031932    [1[6[8][1][1]]]                                             
  H          -3.354784            -1.977899            -2.980736            1             0.031932    [1[6[8][1][1]]]                                             
  H          -4.769125            -1.432283            -2.040822            1             0.031932    [1[6[8][1][1]]]                                             
