12

  C           5.916145             7.599752            -3.115480            0             0.099454    [6[8[1]][1][1][1]]                                          
  O           6.303187             6.405109            -3.797141            0            -0.597823    [8[6[1][1][1]][1]]                                          
  H           6.313995             5.742929            -3.113214            0             0.402573    [1[8[6]]]                                                   
  H           6.562852             7.866482            -2.246742            0             0.031932    [1[6[8][1][1]]]                                             
  H           5.963492             8.428625            -3.817606            0             0.031932    [1[6[8][1][1]]]                                             
  H           4.933177             7.588969            -2.693862            0             0.031932    [1[6[8][1][1]]]                                             
  C           3.522016             3.639850            -5.642399            1             0.099454    [6[8[1]][1][1][1]]                                          
  O           2.143090             3.550942            -6.096599            1            -0.597823    [8[6[1][1][1]][1]]                                          
  H           1.805661             2.673086            -5.987223            1             0.402573    [1[8[6]]]                                                   
  H           4.273496             3.105135            -6.260099            1             0.031932    [1[6[8][1][1]]]                                             
  H           3.856484             4.635359            -5.653615            1             0.031932    [1[6[8][1][1]]]                                             
  H           3.616482             3.242243            -4.599402            1             0.031932    [1[6[8][1][1]]]                                             
