12

  C          -7.605909             2.443021            -5.622041            0             0.099454    [6[8[1]][1][1][1]]                                          
  O          -8.394434             3.474753            -5.066151            0            -0.597823    [8[6[1][1][1]][1]]                                          
  H          -8.746984             3.268596            -4.163043            0             0.402573    [1[8[6]]]                                                   
  H          -6.908455             2.024404            -4.832031            0             0.031932    [1[6[8][1][1]]]                                             
  H          -8.242513             1.688588            -6.000919            0             0.031932    [1[6[8][1][1]]]                                             
  H          -7.027775             2.828739            -6.512241            0             0.031932    [1[6[8][1][1]]]                                             
  C          -11.246257            4.690061            -5.507770            1             0.099454    [6[8[1]][1][1][1]]                                          
  O          -11.667383            5.099352            -6.767872            1            -0.597823    [8[6[1][1][1]][1]]                                          
  H          -10.915478            4.982300            -7.343913            1             0.402573    [1[8[6]]]                                                   
  H          -10.329714            5.154487            -5.161061            1             0.031932    [1[6[8][1][1]]]                                             
  H          -11.975830            4.830696            -4.695046            1             0.031932    [1[6[8][1][1]]]                                             
  H          -10.984927            3.649927            -5.510068            1             0.031932    [1[6[8][1][1]]]                                             
