12

  C           0.395747             0.499302             3.166637            0             0.099454    [6[8[1]][1][1][1]]                                          
  O          -0.741435             1.109411             2.820772            0            -0.597823    [8[6[1][1][1]][1]]                                          
  H          -1.443136             0.800324             3.428644            0             0.402573    [1[8[6]]]                                                   
  H           0.572906             0.753819             4.234277            0             0.031932    [1[6[8][1][1]]]                                             
  H           0.320529            -0.597235             3.056164            0             0.031932    [1[6[8][1][1]]]                                             
  H           1.203881             0.845296             2.442496            0             0.031932    [1[6[8][1][1]]]                                             
  C          -3.965883             2.048784             1.559939            1             0.099454    [6[8[1]][1][1][1]]                                          
  O          -4.866182             2.913644             0.896219            1            -0.597823    [8[6[1][1][1]][1]]                                          
  H          -4.545150             3.804829             0.903590            1             0.402573    [1[8[6]]]                                                   
  H          -2.981201             2.397897             1.317964            1             0.031932    [1[6[8][1][1]]]                                             
  H          -4.019442             2.084970             2.665880            1             0.031932    [1[6[8][1][1]]]                                             
  H          -4.032542             0.968432             1.362334            1             0.031932    [1[6[8][1][1]]]                                             
