12

  C          -8.672339            -9.634608             2.156683            0             0.099454    [6[8[1]][1][1][1]]                                          
  O          -9.971335            -9.241413             1.851202            0            -0.597823    [8[6[1][1][1]][1]]                                          
  H          -9.983889            -8.358073             1.480838            0             0.402573    [1[8[6]]]                                                   
  H          -8.841103            -10.336527            3.011248            0             0.031932    [1[6[8][1][1]]]                                             
  H          -8.160852            -10.192829            1.358109            0             0.031932    [1[6[8][1][1]]]                                             
  H          -8.033910            -8.807568             2.415028            0             0.031932    [1[6[8][1][1]]]                                             
  C          -10.411031           -6.497166            -1.425488            1             0.099454    [6[8[1]][1][1][1]]                                          
  O          -10.103061           -6.686543            -0.088535            1            -0.597823    [8[6[1][1][1]][1]]                                          
  H          -9.212419            -6.309215             0.118963            1             0.402573    [1[8[6]]]                                                   
  H          -11.253937           -5.788915            -1.566383            1             0.031932    [1[6[8][1][1]]]                                             
  H          -9.499957            -5.949211            -1.949446            1             0.031932    [1[6[8][1][1]]]                                             
  H          -10.717005           -7.407105            -1.952296            1             0.031932    [1[6[8][1][1]]]                                             
