12

  C           0.741644            -9.961062            -5.985418            0             0.099454    [6[8[1]][1][1][1]]                                          
  O          -0.296424            -10.858472           -5.471608            0            -0.597823    [8[6[1][1][1]][1]]                                          
  H          -0.946359            -10.348229           -4.948801            0             0.402573    [1[8[6]]]                                                   
  H           1.510999            -10.492507           -6.512257            0             0.031932    [1[6[8][1][1]]]                                             
  H           0.381211            -9.186542            -6.686297            0             0.031932    [1[6[8][1][1]]]                                             
  H           1.110891            -9.255089            -5.188916            0             0.031932    [1[6[8][1][1]]]                                             
  C          -2.724335            -7.779231            -3.663963            1             0.099454    [6[8[1]][1][1][1]]                                          
  O          -2.306535            -8.949450            -4.368580            1            -0.597823    [8[6[1][1][1]][1]]                                          
  H          -3.146143            -9.301360            -4.569485            1             0.402573    [1[8[6]]]                                                   
  H          -3.622942            -8.116595            -3.058919            1             0.031932    [1[6[8][1][1]]]                                             
  H          -2.015280            -7.343031            -2.985387            1             0.031932    [1[6[8][1][1]]]                                             
  H          -3.217830            -7.021954            -4.316722            1             0.031932    [1[6[8][1][1]]]                                             
