12

  C          -10.786374           -2.434926             6.102013            0             0.099454    [6[8[1]][1][1][1]]                                          
  O          -9.534967            -2.920032             6.721126            0            -0.597823    [8[6[1][1][1]][1]]                                          
  H          -9.546065            -3.876163             6.859019            0             0.402573    [1[8[6]]]                                                   
  H          -10.700096           -1.362841             6.063289            0             0.031932    [1[6[8][1][1]]]                                             
  H          -10.879818           -2.671802             5.082183            0             0.031932    [1[6[8][1][1]]]                                             
  H          -11.722517           -2.729585             6.503359            0             0.031932    [1[6[8][1][1]]]                                             
  C          -10.753965            0.838930             8.326161            1             0.099454    [6[8[1]][1][1][1]]                                          
  O          -11.929895            0.101893             8.683760            1            -0.597823    [8[6[1][1][1]][1]]                                          
  H          -12.632640            0.206416             8.026388            1             0.402573    [1[8[6]]]                                                   
  H          -9.922303             0.742004             8.990890            1             0.031932    [1[6[8][1][1]]]                                             
  H          -10.459346            0.413032             7.399984            1             0.031932    [1[6[8][1][1]]]                                             
  H          -10.986522            1.865628             8.128027            1             0.031932    [1[6[8][1][1]]]                                             
