12

  C          -4.531715            -3.327488             3.855180            0             0.099454    [6[8[1]][1][1][1]]                                          
  O          -5.285925            -4.508734             4.030222            0            -0.597823    [8[6[1][1][1]][1]]                                          
  H          -4.623814            -5.225967             3.998889            0             0.402573    [1[8[6]]]                                                   
  H          -4.056107            -3.085744             4.805620            0             0.031932    [1[6[8][1][1]]]                                             
  H          -3.844368            -3.437728             3.013197            0             0.031932    [1[6[8][1][1]]]                                             
  H          -5.163979            -2.483007             3.642173            0             0.031932    [1[6[8][1][1]]]                                             
  C          -10.607702           -6.279182             4.956583            1             0.099454    [6[8[1]][1][1][1]]                                          
  O          -9.962878            -5.256019             4.217466            1            -0.597823    [8[6[1][1][1]][1]]                                          
  H          -9.160693            -5.027956             4.776524            1             0.402573    [1[8[6]]]                                                   
  H          -10.191750           -7.315485             4.792045            1             0.031932    [1[6[8][1][1]]]                                             
  H          -10.521289           -6.060253             6.014975            1             0.031932    [1[6[8][1][1]]]                                             
  H          -11.670653           -6.322046             4.700460            1             0.031932    [1[6[8][1][1]]]                                             
