12

  C           6.369187            -9.904875            -6.703849            0             0.099454    [6[8[1]][1][1][1]]                                          
  O           6.245421            -9.413843            -5.411142            0            -0.597823    [8[6[1][1][1]][1]]                                          
  H           6.942337            -9.718965            -4.856947            0             0.402573    [1[8[6]]]                                                   
  H           5.664437            -9.421000            -7.422368            0             0.031932    [1[6[8][1][1]]]                                             
  H           7.396688            -9.835106            -7.022802            0             0.031932    [1[6[8][1][1]]]                                             
  H           6.137889            -10.954571           -6.839164            0             0.031932    [1[6[8][1][1]]]                                             
  C           3.923328            -6.015317            -7.830760            1             0.099454    [6[8[1]][1][1][1]]                                          
  O           4.716939            -7.094620            -7.366473            1            -0.597823    [8[6[1][1][1]][1]]                                          
  H           4.814119            -6.920206            -6.427046            1             0.402573    [1[8[6]]]                                                   
  H           4.304052            -5.098530            -7.480728            1             0.031932    [1[6[8][1][1]]]                                             
  H           3.776047            -6.051977            -8.912283            1             0.031932    [1[6[8][1][1]]]                                             
  H           2.902792            -6.095236            -7.415277            1             0.031932    [1[6[8][1][1]]]                                             
