12

  C           2.761676            -6.208087             3.528277            0             0.099454    [6[8[1]][1][1][1]]                                          
  O           3.031626            -7.417651             2.918432            0            -0.597823    [8[6[1][1][1]][1]]                                          
  H           2.459564            -7.478778             2.192738            0             0.402573    [1[8[6]]]                                                   
  H           3.046349            -6.231249             4.572474            0             0.031932    [1[6[8][1][1]]]                                             
  H           3.447008            -5.440362             3.205289            0             0.031932    [1[6[8][1][1]]]                                             
  H           1.725867            -5.883107             3.328720            0             0.031932    [1[6[8][1][1]]]                                             
  C           3.336545            -6.019057            -0.127289            1             0.099454    [6[8[1]][1][1][1]]                                          
  O           2.124200            -6.692143            -0.632479            1            -0.597823    [8[6[1][1][1]][1]]                                          
  H           2.245712            -6.788249            -1.551181            1             0.402573    [1[8[6]]]                                                   
  H           3.279200            -5.674546             0.871108            1             0.031932    [1[6[8][1][1]]]                                             
  H           4.169471            -6.729841            -0.125674            1             0.031932    [1[6[8][1][1]]]                                             
  H           3.693860            -5.153305            -0.729483            1             0.031932    [1[6[8][1][1]]]                                             
