12

  C           5.253205             4.507074            -3.053376            0             0.099454    [6[8[1]][1][1][1]]                                          
  O           5.078979             3.592392            -4.076095            0            -0.597823    [8[6[1][1][1]][1]]                                          
  H           5.864764             3.683690            -4.620839            0             0.402573    [1[8[6]]]                                                   
  H           4.340975             4.627776            -2.440658            0             0.031932    [1[6[8][1][1]]]                                             
  H           6.206101             4.469384            -2.478846            0             0.031932    [1[6[8][1][1]]]                                             
  H           5.314553             5.510813            -3.427747            0             0.031932    [1[6[8][1][1]]]                                             
  C           7.637441             1.901830            -7.124614            1             0.099454    [6[8[1]][1][1][1]]                                          
  O           8.006855             2.786531            -8.216993            1            -0.597823    [8[6[1][1][1]][1]]                                          
  H           7.777060             3.687754            -7.978037            1             0.402573    [1[8[6]]]                                                   
  H           8.049334             0.952244            -7.248517            1             0.031932    [1[6[8][1][1]]]                                             
  H           8.035517             2.236352            -6.181729            1             0.031932    [1[6[8][1][1]]]                                             
  H           6.562761             1.806006            -7.065401            1             0.031932    [1[6[8][1][1]]]                                             
