12

  C          -1.552654            -0.347999             4.263472            0             0.099454    [6[8[1]][1][1][1]]                                          
  O          -0.675985            -0.786314             3.238730            0            -0.597823    [8[6[1][1][1]][1]]                                          
  H          -1.311521            -0.903148             2.507645            0             0.402573    [1[8[6]]]                                                   
  H          -1.893925             0.644904             3.934240            0             0.031932    [1[6[8][1][1]]]                                             
  H          -2.420135            -0.936720             4.503697            0             0.031932    [1[6[8][1][1]]]                                             
  H          -1.047543            -0.169033             5.200596            0             0.031932    [1[6[8][1][1]]]                                             
  C          -4.294630             2.636762             2.112842            1             0.099454    [6[8[1]][1][1][1]]                                          
  O          -2.945016             2.913256             2.396499            1            -0.597823    [8[6[1][1][1]][1]]                                          
  H          -2.375241             2.588121             1.690587            1             0.402573    [1[8[6]]]                                                   
  H          -4.235161             1.715632             1.468674            1             0.031932    [1[6[8][1][1]]]                                             
  H          -4.920146             2.517834             3.005229            1             0.031932    [1[6[8][1][1]]]                                             
  H          -4.786454             3.438552             1.510866            1             0.031932    [1[6[8][1][1]]]                                             
