12

  C           5.169243            -9.493771             5.503406            0             0.099454    [6[8[1]][1][1][1]]                                          
  O           3.942726            -9.233860             4.939729            0            -0.597823    [8[6[1][1][1]][1]]                                          
  H           3.428846            -8.678624             5.570812            0             0.402573    [1[8[6]]]                                                   
  H           5.209470            -9.584556             6.578923            0             0.031932    [1[6[8][1][1]]]                                             
  H           5.409796            -10.512706            5.172332            0             0.031932    [1[6[8][1][1]]]                                             
  H           5.951064            -8.839104             5.193346            0             0.031932    [1[6[8][1][1]]]                                             
  C           1.483143            -6.670682             7.141050            1             0.099454    [6[8[1]][1][1][1]]                                          
  O           2.279742            -7.741575             6.943652            1            -0.597823    [8[6[1][1][1]][1]]                                          
  H           2.653894            -7.988781             7.827667            1             0.402573    [1[8[6]]]                                                   
  H           0.787316            -6.515755             6.273544            1             0.031932    [1[6[8][1][1]]]                                             
  H           0.770089            -6.797256             7.967102            1             0.031932    [1[6[8][1][1]]]                                             
  H           2.020372            -5.751115             7.456566            1             0.031932    [1[6[8][1][1]]]                                             
