12

  C           8.962663             8.231957             5.425827            0             0.099454    [6[8[1]][1][1][1]]                                          
  O           9.949730             9.224172             5.452284            0            -0.597823    [8[6[1][1][1]][1]]                                          
  H           10.724420            8.779643             5.024574            0             0.402573    [1[8[6]]]                                                   
  H           9.107767             7.617741             6.368248            0             0.031932    [1[6[8][1][1]]]                                             
  H           7.926964             8.624352             5.397204            0             0.031932    [1[6[8][1][1]]]                                             
  H           9.010763             7.567590             4.507931            0             0.031932    [1[6[8][1][1]]]                                             
  C           6.861492             5.774178             7.525657            1             0.099454    [6[8[1]][1][1][1]]                                          
  O           6.956524             4.517735             8.196952            1            -0.597823    [8[6[1][1][1]][1]]                                          
  H           6.060962             4.250020             8.503476            1             0.402573    [1[8[6]]]                                                   
  H           7.551092             5.818147             6.732101            1             0.031932    [1[6[8][1][1]]]                                             
  H           5.883654             5.990460             7.144270            1             0.031932    [1[6[8][1][1]]]                                             
  H           7.087526             6.610111             8.264832            1             0.031932    [1[6[8][1][1]]]                                             
