12

  C          -10.222836            8.222040            -1.314980            0             0.099454    [6[8[1]][1][1][1]]                                          
  O          -9.311791             9.275276            -1.196687            0            -0.597823    [8[6[1][1][1]][1]]                                          
  H          -9.311907             9.779786            -2.046331            0             0.402573    [1[8[6]]]                                                   
  H          -10.054885            7.518585            -0.468699            0             0.031932    [1[6[8][1][1]]]                                             
  H          -11.220995            8.539952            -1.155101            0             0.031932    [1[6[8][1][1]]]                                             
  H          -10.093888            7.611349            -2.239045            0             0.031932    [1[6[8][1][1]]]                                             
  C          -7.891198             9.115021            -4.324020            1             0.099454    [6[8[1]][1][1][1]]                                          
  O          -8.470613             10.296675           -3.738521            1            -0.597823    [8[6[1][1][1]][1]]                                          
  H          -7.782166             10.973063           -3.734811            1             0.402573    [1[8[6]]]                                                   
  H          -8.695296             8.508652            -4.792260            1             0.031932    [1[6[8][1][1]]]                                             
  H          -7.083510             9.382732            -5.054596            1             0.031932    [1[6[8][1][1]]]                                             
  H          -7.445530             8.440400            -3.553511            1             0.031932    [1[6[8][1][1]]]                                             
