12

  C          -3.521737            -6.032928            -3.997539            0             0.099454    [6[8[1]][1][1][1]]                                          
  O          -3.209134            -4.842496            -3.204906            0            -0.597823    [8[6[1][1][1]][1]]                                          
  H          -3.319984            -4.094860            -3.795784            0             0.402573    [1[8[6]]]                                                   
  H          -3.627151            -6.940647            -3.414398            0             0.031932    [1[6[8][1][1]]]                                             
  H          -4.523750            -5.897630            -4.422226            0             0.031932    [1[6[8][1][1]]]                                             
  H          -2.762533            -6.264531            -4.740990            0             0.031932    [1[6[8][1][1]]]                                             
  C          -0.934420            -1.501478            -4.577652            1             0.099454    [6[8[1]][1][1][1]]                                          
  O          -1.421709            -2.465679            -3.642206            1            -0.597823    [8[6[1][1][1]][1]]                                          
  H          -0.741423            -3.108189            -3.495462            1             0.402573    [1[8[6]]]                                                   
  H          -0.216309            -0.881202            -4.057632            1             0.031932    [1[6[8][1][1]]]                                             
  H          -0.440611            -1.899452            -5.463402            1             0.031932    [1[6[8][1][1]]]                                             
  H          -1.623490            -0.727408            -4.985823            1             0.031932    [1[6[8][1][1]]]                                             
