12

  C           4.287323             3.811473            -10.095497           0             0.099454    [6[8[1]][1][1][1]]                                          
  O           5.437001             3.561698            -10.899745           0            -0.597823    [8[6[1][1][1]][1]]                                          
  H           5.610883             2.637790            -10.816381           0             0.402573    [1[8[6]]]                                                   
  H           3.601199             4.500166            -10.683801           0             0.031932    [1[6[8][1][1]]]                                             
  H           3.740410             2.909689            -9.881101            0             0.031932    [1[6[8][1][1]]]                                             
  H           4.471084             4.301608            -9.117160            0             0.031932    [1[6[8][1][1]]]                                             
  C           3.021370             9.219144            -8.876034            1             0.099454    [6[8[1]][1][1][1]]                                          
  O           2.988232             10.333611           -8.053201            1            -0.597823    [8[6[1][1][1]][1]]                                          
  H           3.566255             11.030090           -8.396873            1             0.402573    [1[8[6]]]                                                   
  H           2.927108             8.298902            -8.306554            1             0.031932    [1[6[8][1][1]]]                                             
  H           2.081663             9.364225            -9.548580            1             0.031932    [1[6[8][1][1]]]                                             
  H           3.885532             9.146176            -9.495416            1             0.031932    [1[6[8][1][1]]]                                             
