12

  C          -8.719428            -0.806688             2.256153            0             0.099454    [6[8[1]][1][1][1]]                                          
  O          -10.041191           -1.234781             2.494380            0            -0.597823    [8[6[1][1][1]][1]]                                          
  H          -10.144787           -1.521010             3.361301            0             0.402573    [1[8[6]]]                                                   
  H          -8.220031            -0.383521             3.209562            0             0.031932    [1[6[8][1][1]]]                                             
  H          -8.128405            -1.587988             1.732554            0             0.031932    [1[6[8][1][1]]]                                             
  H          -8.726105             0.059084             1.528395            0             0.031932    [1[6[8][1][1]]]                                             
  C          -10.205780            1.008427             4.940349            1             0.099454    [6[8[1]][1][1][1]]                                          
  O          -9.787588             2.053346             5.751389            1            -0.597823    [8[6[1][1][1]][1]]                                          
  H          -10.422777            2.726125             5.551359            1             0.402573    [1[8[6]]]                                                   
  H          -11.282600            0.923962             4.968889            1             0.031932    [1[6[8][1][1]]]                                             
  H          -9.835737             1.188598             3.905393            1             0.031932    [1[6[8][1][1]]]                                             
  H          -9.735738             0.053062             5.211727            1             0.031932    [1[6[8][1][1]]]                                             
