12

  C          -7.477111            -4.456450            -6.946488            0             0.099454    [6[8[1]][1][1][1]]                                          
  O          -7.988286            -4.822817            -5.665183            0            -0.597823    [8[6[1][1][1]][1]]                                          
  H          -7.892709            -4.108142            -5.012299            0             0.402573    [1[8[6]]]                                                   
  H          -6.388501            -4.259669            -7.003349            0             0.031932    [1[6[8][1][1]]]                                             
  H          -7.612256            -5.270702            -7.671501            0             0.031932    [1[6[8][1][1]]]                                             
  H          -7.996882            -3.590406            -7.298455            0             0.031932    [1[6[8][1][1]]]                                             
  C          -5.989405            -5.964235            -2.020473            1             0.099454    [6[8[1]][1][1][1]]                                          
  O          -6.767436            -4.800188            -2.082916            1            -0.597823    [8[6[1][1][1]][1]]                                          
  H          -6.623553            -4.234828            -1.284566            1             0.402573    [1[8[6]]]                                                   
  H          -6.057582            -6.555116            -1.019395            1             0.031932    [1[6[8][1][1]]]                                             
  H          -6.398733            -6.747629            -2.648712            1             0.031932    [1[6[8][1][1]]]                                             
  H          -4.950613            -5.793271            -2.207913            1             0.031932    [1[6[8][1][1]]]                                             
