12

  C           3.632446            -6.994954             3.184119            0             0.099454    [6[8[1]][1][1][1]]                                          
  O           4.407674            -7.329784             1.949356            0            -0.597823    [8[6[1][1][1]][1]]                                          
  H           4.084722            -6.757850             1.277197            0             0.402573    [1[8[6]]]                                                   
  H           3.654814            -7.907382             3.783212            0             0.031932    [1[6[8][1][1]]]                                             
  H           4.085916            -6.202538             3.691906            0             0.031932    [1[6[8][1][1]]]                                             
  H           2.536765            -6.837212             2.963092            0             0.031932    [1[6[8][1][1]]]                                             
  C           4.271287            -11.181173            2.809340            1             0.099454    [6[8[1]][1][1][1]]                                          
  O           5.219006            -12.088335            3.242450            1            -0.597823    [8[6[1][1][1]][1]]                                          
  H           6.090139            -11.795613            2.957617            1             0.402573    [1[8[6]]]                                                   
  H           4.312714            -10.886073            1.767779            1             0.031932    [1[6[8][1][1]]]                                             
  H           3.263578            -11.671661            2.858804            1             0.031932    [1[6[8][1][1]]]                                             
  H           4.221716            -10.303152            3.462769            1             0.031932    [1[6[8][1][1]]]                                             
