12

  C           6.919625             2.237632             2.945838            0             0.099454    [6[8[1]][1][1][1]]                                          
  O           7.105568             3.614791             3.004067            0            -0.597823    [8[6[1][1][1]][1]]                                          
  H           7.927648             3.903414             2.617584            0             0.402573    [1[8[6]]]                                                   
  H           7.422164             1.719098             3.729250            0             0.031932    [1[6[8][1][1]]]                                             
  H           5.841692             1.966989             3.041488            0             0.031932    [1[6[8][1][1]]]                                             
  H           7.318918             1.785904             1.953686            0             0.031932    [1[6[8][1][1]]]                                             
  C           4.982957             4.001329             5.891778            1             0.099454    [6[8[1]][1][1][1]]                                          
  O           4.613225             3.537500             4.583148            1            -0.597823    [8[6[1][1][1]][1]]                                          
  H           5.346133             3.845427             3.967900            1             0.402573    [1[8[6]]]                                                   
  H           4.870589             3.154463             6.600303            1             0.031932    [1[6[8][1][1]]]                                             
  H           6.029761             4.384582             5.912499            1             0.031932    [1[6[8][1][1]]]                                             
  H           4.309728             4.826055             6.124172            1             0.031932    [1[6[8][1][1]]]                                             
