12

  C          -5.201214             2.513529            -9.631531            0             0.099454    [6[8[1]][1][1][1]]                                          
  O          -4.515403             1.567229            -8.775223            0            -0.597823    [8[6[1][1][1]][1]]                                          
  H          -3.611690             1.885344            -8.810768            0             0.402573    [1[8[6]]]                                                   
  H          -5.769243             3.251244            -9.067049            0             0.031932    [1[6[8][1][1]]]                                             
  H          -4.640554             2.954154            -10.383649           0             0.031932    [1[6[8][1][1]]]                                             
  H          -6.017593             1.996925            -10.226665           0             0.031932    [1[6[8][1][1]]]                                             
  C          -9.154546             1.934879            -6.663609            1             0.099454    [6[8[1]][1][1][1]]                                          
  O          -7.723137             1.838977            -6.525834            1            -0.597823    [8[6[1][1][1]][1]]                                          
  H          -7.325439             2.560128            -6.967846            1             0.402573    [1[8[6]]]                                                   
  H          -9.538992             1.800190            -7.658600            1             0.031932    [1[6[8][1][1]]]                                             
  H          -9.758094             1.485448            -5.888381            1             0.031932    [1[6[8][1][1]]]                                             
  H          -9.552824             2.964969            -6.674743            1             0.031932    [1[6[8][1][1]]]                                             
