12

  C           3.794266            -8.936856             6.741659            0             0.099454    [6[8[1]][1][1][1]]                                          
  O           4.132634            -9.098652             8.080715            0            -0.597823    [8[6[1][1][1]][1]]                                          
  H           4.927049            -9.696112             8.053022            0             0.402573    [1[8[6]]]                                                   
  H           4.635598            -8.653033             6.097929            0             0.031932    [1[6[8][1][1]]]                                             
  H           3.378870            -9.771579             6.225077            0             0.031932    [1[6[8][1][1]]]                                             
  H           3.085883            -8.117320             6.674257            0             0.031932    [1[6[8][1][1]]]                                             
  C           0.911363            -8.439596             9.086391            1             0.099454    [6[8[1]][1][1][1]]                                          
  O           2.026675            -7.599376             9.425141            1            -0.597823    [8[6[1][1][1]][1]]                                          
  H           2.761438            -8.201270             9.323782            1             0.402573    [1[8[6]]]                                                   
  H           0.176568            -8.332073             9.896364            1             0.031932    [1[6[8][1][1]]]                                             
  H           0.433024            -8.229368             8.098772            1             0.031932    [1[6[8][1][1]]]                                             
  H           1.205850            -9.505201             9.067586            1             0.031932    [1[6[8][1][1]]]                                             
