12

  C           0.666390            -0.715815            -0.420100            0             0.099454    [6[8[1]][1][1][1]]                                          
  O           1.567490             0.321839            -0.143165            0            -0.597823    [8[6[1][1][1]][1]]                                          
  H           1.326093             1.086254            -0.696441            0             0.402573    [1[8[6]]]                                                   
  H          -0.316124            -0.427597            -0.014911            0             0.031932    [1[6[8][1][1]]]                                             
  H           0.543968            -0.926248            -1.464179            0             0.031932    [1[6[8][1][1]]]                                             
  H           1.024687            -1.624058             0.019191            0             0.031932    [1[6[8][1][1]]]                                             
  C           1.775487            -5.850397            -1.722327            1             0.099454    [6[8[1]][1][1][1]]                                          
  O           2.810676            -6.793449            -1.944086            1            -0.597823    [8[6[1][1][1]][1]]                                          
  H           2.419186            -7.565538            -2.296030            1             0.402573    [1[8[6]]]                                                   
  H           1.421974            -5.903203            -0.654926            1             0.031932    [1[6[8][1][1]]]                                             
  H           2.131401            -4.852611            -1.820649            1             0.031932    [1[6[8][1][1]]]                                             
  H           0.974114            -5.960712            -2.478591            1             0.031932    [1[6[8][1][1]]]                                             
