12

  C           7.449165            -7.833267            -3.684489            0             0.099454    [6[8[1]][1][1][1]]                                          
  O           8.673282            -7.312019            -3.276682            0            -0.597823    [8[6[1][1][1]][1]]                                          
  H           8.453897            -6.609753            -2.633320            0             0.402573    [1[8[6]]]                                                   
  H           7.556963            -8.725010            -4.270334            0             0.031932    [1[6[8][1][1]]]                                             
  H           6.723539            -8.104884            -2.806945            0             0.031932    [1[6[8][1][1]]]                                             
  H           6.928298            -7.117201            -4.257824            0             0.031932    [1[6[8][1][1]]]                                             
  C           11.076517           -8.554531            -1.744906            1             0.099454    [6[8[1]][1][1][1]]                                          
  O           10.153964           -8.303741            -0.696655            1            -0.597823    [8[6[1][1][1]][1]]                                          
  H           9.337637            -8.741784            -1.011059            1             0.402573    [1[8[6]]]                                                   
  H           11.747606           -7.739471            -1.922216            1             0.031932    [1[6[8][1][1]]]                                             
  H           11.732640           -9.399940            -1.543926            1             0.031932    [1[6[8][1][1]]]                                             
  H           10.655528           -8.805024            -2.715409            1             0.031932    [1[6[8][1][1]]]                                             
