12

  C           5.916145             7.599752            -3.115480            0             0.099454    [6[8[1]][1][1][1]]                                          
  O           6.303187             6.405109            -3.797141            0            -0.597823    [8[6[1][1][1]][1]]                                          
  H           6.313995             5.742929            -3.113214            0             0.402573    [1[8[6]]]                                                   
  H           6.562852             7.866482            -2.246742            0             0.031932    [1[6[8][1][1]]]                                             
  H           5.963492             8.428625            -3.817606            0             0.031932    [1[6[8][1][1]]]                                             
  H           4.933177             7.588969            -2.693862            0             0.031932    [1[6[8][1][1]]]                                             
  C           7.545939             11.477723           -5.060242            1             0.099454    [6[8[1]][1][1][1]]                                          
  O           8.628813             10.954829           -4.312294            1            -0.597823    [8[6[1][1][1]][1]]                                          
  H           8.377161             10.922919           -3.407879            1             0.402573    [1[8[6]]]                                                   
  H           7.777598             11.448818           -6.128097            1             0.031932    [1[6[8][1][1]]]                                             
  H           6.590545             10.941057           -4.773202            1             0.031932    [1[6[8][1][1]]]                                             
  H           7.410125             12.507128           -4.888703            1             0.031932    [1[6[8][1][1]]]                                             
