12

  C          -0.007571             2.884202             0.553842            0             0.099454    [6[8[1]][1][1][1]]                                          
  O          -0.961278             2.596705            -0.447890            0            -0.597823    [8[6[1][1][1]][1]]                                          
  H          -1.309672             3.448110            -0.727636            0             0.402573    [1[8[6]]]                                                   
  H          -0.458122             3.474589             1.324680            0             0.031932    [1[6[8][1][1]]]                                             
  H           0.421138             2.083740             1.150053            0             0.031932    [1[6[8][1][1]]]                                             
  H           0.747337             3.588553             0.238310            0             0.031932    [1[6[8][1][1]]]                                             
  C          -4.294630             2.636762             2.112842            1             0.099454    [6[8[1]][1][1][1]]                                          
  O          -2.945016             2.913256             2.396499            1            -0.597823    [8[6[1][1][1]][1]]                                          
  H          -2.375241             2.588121             1.690587            1             0.402573    [1[8[6]]]                                                   
  H          -4.235161             1.715632             1.468674            1             0.031932    [1[6[8][1][1]]]                                             
  H          -4.920146             2.517834             3.005229            1             0.031932    [1[6[8][1][1]]]                                             
  H          -4.786454             3.438552             1.510866            1             0.031932    [1[6[8][1][1]]]                                             
