12

  C           6.381632            -1.870875             3.659416            0             0.099454    [6[8[1]][1][1][1]]                                          
  O           6.865294            -2.428046             2.462627            0            -0.597823    [8[6[1][1][1]][1]]                                          
  H           7.177478            -3.339419             2.607261            0             0.402573    [1[8[6]]]                                                   
  H           5.847585            -2.577557             4.305369            0             0.031932    [1[6[8][1][1]]]                                             
  H           7.275320            -1.535234             4.225810            0             0.031932    [1[6[8][1][1]]]                                             
  H           5.685898            -1.053315             3.452593            0             0.031932    [1[6[8][1][1]]]                                             
  C           5.146326            -5.103840             1.842920            1             0.099454    [6[8[1]][1][1][1]]                                          
  O           5.654684            -5.871163             0.799366            1            -0.597823    [8[6[1][1][1]][1]]                                          
  H           5.178208            -6.754287             0.859761            1             0.402573    [1[8[6]]]                                                   
  H           5.839088            -5.067599             2.729695            1             0.031932    [1[6[8][1][1]]]                                             
  H           4.986382            -4.087363             1.493525            1             0.031932    [1[6[8][1][1]]]                                             
  H           4.174827            -5.519229             2.109580            1             0.031932    [1[6[8][1][1]]]                                             
