12

  C           8.993395             7.768408            -1.929499            0             0.099454    [6[8[1]][1][1][1]]                                          
  O           8.277690             6.973573            -2.867001            0            -0.597823    [8[6[1][1][1]][1]]                                          
  H           8.425852             6.002038            -2.621908            0             0.402573    [1[8[6]]]                                                   
  H           8.719667             7.623738            -0.890754            0             0.031932    [1[6[8][1][1]]]                                             
  H           10.017294            7.538047            -2.089698            0             0.031932    [1[6[8][1][1]]]                                             
  H           8.693752             8.789069            -2.138796            0             0.031932    [1[6[8][1][1]]]                                             
  C           8.147362             3.621650            -3.749684            1             0.099454    [6[8[1]][1][1][1]]                                          
  O           8.053980             4.057583            -2.454928            1            -0.597823    [8[6[1][1][1]][1]]                                          
  H           7.472880             3.409524            -2.063040            1             0.402573    [1[8[6]]]                                                   
  H           7.820027             2.626620            -3.885421            1             0.031932    [1[6[8][1][1]]]                                             
  H           7.487367             4.180078            -4.434288            1             0.031932    [1[6[8][1][1]]]                                             
  H           9.216773             3.642630            -4.117676            1             0.031932    [1[6[8][1][1]]]                                             
