12

  C           5.188788             2.614549            -0.430988            0             0.099454    [6[8[1]][1][1][1]]                                          
  O           4.272714             3.629414            -0.212891            0            -0.597823    [8[6[1][1][1]][1]]                                          
  H           4.735754             4.461235            -0.188900            0             0.402573    [1[8[6]]]                                                   
  H           5.899015             2.492255             0.391204            0             0.031932    [1[6[8][1][1]]]                                             
  H           4.718363             1.670627            -0.695147            0             0.031932    [1[6[8][1][1]]]                                             
  H           5.822392             2.953750            -1.309417            0             0.031932    [1[6[8][1][1]]]                                             
  C           7.316150             4.315736             2.639256            1             0.099454    [6[8[1]][1][1][1]]                                          
  O           6.591456             5.243610             3.419545            1            -0.597823    [8[6[1][1][1]][1]]                                          
  H           6.164695             4.581253             3.946942            1             0.402573    [1[8[6]]]                                                   
  H           8.375635             4.458791             2.782526            1             0.031932    [1[6[8][1][1]]]                                             
  H           7.085207             3.298872             2.953924            1             0.031932    [1[6[8][1][1]]]                                             
  H           6.965721             4.240085             1.594744            1             0.031932    [1[6[8][1][1]]]                                             
