12

  C          -6.021615             2.934555            -8.492987            0             0.099454    [6[8[1]][1][1][1]]                                          
  O          -5.141594             3.811978            -9.244973            0            -0.597823    [8[6[1][1][1]][1]]                                          
  H          -5.640391             4.497525            -9.594780            0             0.402573    [1[8[6]]]                                                   
  H          -5.572654             2.037681            -8.087284            0             0.031932    [1[6[8][1][1]]]                                             
  H          -6.486371             3.436611            -7.618485            0             0.031932    [1[6[8][1][1]]]                                             
  H          -6.830340             2.602840            -9.088502            0             0.031932    [1[6[8][1][1]]]                                             
  C          -4.745214             7.664078            -8.687042            1             0.099454    [6[8[1]][1][1][1]]                                          
  O          -4.332261             6.539408            -7.906045            1            -0.597823    [8[6[1][1][1]][1]]                                          
  H          -4.517169             5.671242            -8.362064            1             0.402573    [1[8[6]]]                                                   
  H          -4.368732             8.663309            -8.387422            1             0.031932    [1[6[8][1][1]]]                                             
  H          -4.462829             7.513362            -9.758572            1             0.031932    [1[6[8][1][1]]]                                             
  H          -5.833957             7.756142            -8.744650            1             0.031932    [1[6[8][1][1]]]                                             
