12

  C          -2.257604            -6.993449            -0.918277            0             0.099454    [6[8[1]][1][1][1]]                                          
  O          -2.080523            -8.395982            -0.827367            0            -0.597823    [8[6[1][1][1]][1]]                                          
  H          -2.059170            -8.743386             0.111713            0             0.402573    [1[8[6]]]                                                   
  H          -1.423130            -6.407729            -0.539471            0             0.031932    [1[6[8][1][1]]]                                             
  H          -2.370768            -6.724110            -2.003700            0             0.031932    [1[6[8][1][1]]]                                             
  H          -3.147931            -6.621619            -0.383193            0             0.031932    [1[6[8][1][1]]]                                             
  C           1.910665            -7.406347            -1.538785            1             0.099454    [6[8[1]][1][1][1]]                                          
  O           2.346387            -8.085483            -0.372654            1            -0.597823    [8[6[1][1][1]][1]]                                          
  H           1.583944            -8.353732             0.133408            1             0.402573    [1[8[6]]]                                                   
  H           1.126425            -6.632266            -1.441613            1             0.031932    [1[6[8][1][1]]]                                             
  H           2.766215            -6.993816            -2.162697            1             0.031932    [1[6[8][1][1]]]                                             
  H           1.572978            -8.172519            -2.191011            1             0.031932    [1[6[8][1][1]]]                                             
