6

  C          -3.349839            -10.377519            6.723190            0             0.089063    [6[8[1]][1][1][1]]                                          
  O          -3.909223            -9.244859             5.906930            0            -0.604789    [8[6[1][1][1]][1]]                                          
  H          -3.983696            -9.489105             4.982760            0             0.406250    [1[8[6]]]                                                   
  H          -2.320992            -10.540145            6.444161            0             0.036492    [1[6[8][1][1]]]                                             
  H          -3.449869            -10.212168            7.828835            0             0.036492    [1[6[8][1][1]]]                                             
  H          -3.826895            -11.280781            6.500275            0             0.036492    [1[6[8][1][1]]]                                             
