12

  C          -1.670944            -9.559233             3.799074            0             0.099454    [6[8[1]][1][1][1]]                                          
  O          -0.481268            -9.603435             3.036567            0            -0.597823    [8[6[1][1][1]][1]]                                          
  H          -0.736108            -9.305396             2.153526            0             0.402573    [1[8[6]]]                                                   
  H          -2.402088            -10.358033            3.567388            0             0.031932    [1[6[8][1][1]]]                                             
  H          -1.449708            -9.797974             4.816966            0             0.031932    [1[6[8][1][1]]]                                             
  H          -2.153882            -8.556090             3.774826            0             0.031932    [1[6[8][1][1]]]                                             
  C          -1.836438            -10.187012            8.477243            1             0.099454    [6[8[1]][1][1][1]]                                          
  O          -3.182947            -10.585800            8.737161            1            -0.597823    [8[6[1][1][1]][1]]                                          
  H          -3.371845            -11.517466            8.417675            1             0.402573    [1[8[6]]]                                                   
  H          -1.785848            -9.646708             7.498774            1             0.031932    [1[6[8][1][1]]]                                             
  H          -1.443843            -9.424437             9.185187            1             0.031932    [1[6[8][1][1]]]                                             
  H          -1.188261            -11.073030            8.387025            1             0.031932    [1[6[8][1][1]]]                                             
