12

  C          -9.116109             5.828608            -3.149760            0             0.099454    [6[8[1]][1][1][1]]                                          
  O          -8.666366             7.180685            -3.469790            0            -0.597823    [8[6[1][1][1]][1]]                                          
  H          -8.814491             7.394887            -4.363041            0             0.402573    [1[8[6]]]                                                   
  H          -9.459913             5.864401            -2.148955            0             0.031932    [1[6[8][1][1]]]                                             
  H          -9.944737             5.470337            -3.807818            0             0.031932    [1[6[8][1][1]]]                                             
  H          -8.309017             5.140862            -3.188582            0             0.031932    [1[6[8][1][1]]]                                             
  C          -8.741298             2.011350            -3.240860            1             0.099454    [6[8[1]][1][1][1]]                                          
  O          -9.621524             0.943779            -3.563059            1            -0.597823    [8[6[1][1][1]][1]]                                          
  H          -9.309505             0.156833            -3.162644            1             0.402573    [1[8[6]]]                                                   
  H          -9.085731             2.993607            -3.654103            1             0.031932    [1[6[8][1][1]]]                                             
  H          -8.600028             2.141304            -2.154189            1             0.031932    [1[6[8][1][1]]]                                             
  H          -7.868140             1.741703            -3.848083            1             0.031932    [1[6[8][1][1]]]                                             
