12

  C          -5.619514            -0.230082             9.710258            0             0.099454    [6[8[1]][1][1][1]]                                          
  O          -5.919557             0.391140             10.949691           0            -0.597823    [8[6[1][1][1]][1]]                                          
  H          -5.148180             1.017697             11.036180           0             0.402573    [1[8[6]]]                                                   
  H          -6.402927            -0.922974             9.360529            0             0.031932    [1[6[8][1][1]]]                                             
  H          -5.635728             0.617874             8.986753            0             0.031932    [1[6[8][1][1]]]                                             
  H          -4.641547            -0.829193             9.755749            0             0.031932    [1[6[8][1][1]]]                                             
  C          -3.568571            -0.794082             6.539326            1             0.099454    [6[8[1]][1][1][1]]                                          
  O          -4.726504            -0.588247             5.801819            1            -0.597823    [8[6[1][1][1]][1]]                                          
  H          -5.423464            -1.013772             6.340919            1             0.402573    [1[8[6]]]                                                   
  H          -3.615336            -1.698133             7.213197            1             0.031932    [1[6[8][1][1]]]                                             
  H          -2.745506            -0.996332             5.876634            1             0.031932    [1[6[8][1][1]]]                                             
  H          -3.350459             0.093289             7.137578            1             0.031932    [1[6[8][1][1]]]                                             
