12

  C          -1.179622            -0.680025             6.462159            0             0.099454    [6[8[1]][1][1][1]]                                          
  O          -1.994517             0.038928             7.405688            0            -0.597823    [8[6[1][1][1]][1]]                                          
  H          -2.109912             0.907878             7.079844            0             0.402573    [1[8[6]]]                                                   
  H          -0.109920            -0.503745             6.727623            0             0.031932    [1[6[8][1][1]]]                                             
  H          -1.354234            -1.756892             6.522703            0             0.031932    [1[6[8][1][1]]]                                             
  H          -1.366128            -0.313220             5.402350            0             0.031932    [1[6[8][1][1]]]                                             
  C          -5.006678             3.473235             5.282168            1             0.099454    [6[8[1]][1][1][1]]                                          
  O          -3.904577             3.294647             6.106569            1            -0.597823    [8[6[1][1][1]][1]]                                          
  H          -3.139534             2.854562             5.646487            1             0.402573    [1[8[6]]]                                                   
  H          -5.948990             3.414311             5.817788            1             0.031932    [1[6[8][1][1]]]                                             
  H          -4.871574             4.409236             4.792176            1             0.031932    [1[6[8][1][1]]]                                             
  H          -5.065093             2.613388             4.563416            1             0.031932    [1[6[8][1][1]]]                                             
