12

  C          -4.622937             6.512677             6.094771            0             0.099454    [6[8[1]][1][1][1]]                                          
  O          -5.730739             5.646685             5.979663            0            -0.597823    [8[6[1][1][1]][1]]                                          
  H          -5.703783             5.372196             5.033767            0             0.402573    [1[8[6]]]                                                   
  H          -4.238808             6.649470             7.055892            0             0.031932    [1[6[8][1][1]]]                                             
  H          -3.794243             6.162017             5.517498            0             0.031932    [1[6[8][1][1]]]                                             
  H          -4.796104             7.446366             5.644331            0             0.031932    [1[6[8][1][1]]]                                             
  C          -6.288564             7.321391             9.342525            1             0.099454    [6[8[1]][1][1][1]]                                          
  O          -6.551368             6.072985             8.771686            1            -0.597823    [8[6[1][1][1]][1]]                                          
  H          -6.181356             6.100309             7.882743            1             0.402573    [1[8[6]]]                                                   
  H          -5.244810             7.621234             9.418924            1             0.031932    [1[6[8][1][1]]]                                             
  H          -6.769384             8.110163             8.728446            1             0.031932    [1[6[8][1][1]]]                                             
  H          -6.762811             7.352081             10.372824           1             0.031932    [1[6[8][1][1]]]                                             
