12

  C          -9.196187            -3.082035            -0.591072            0             0.099454    [6[8[1]][1][1][1]]                                          
  O          -8.343621            -4.299736            -0.657139            0            -0.597823    [8[6[1][1][1]][1]]                                          
  H          -8.896011            -5.028144            -1.048682            0             0.402573    [1[8[6]]]                                                   
  H          -9.822898            -3.090126            -1.493331            0             0.031932    [1[6[8][1][1]]]                                             
  H          -9.718043            -2.902600             0.356550            0             0.031932    [1[6[8][1][1]]]                                             
  H          -8.586075            -2.208660            -0.610090            0             0.031932    [1[6[8][1][1]]]                                             
  C          -5.552528            -5.978143            -1.411383            1             0.099454    [6[8[1]][1][1][1]]                                          
  O          -5.555377            -5.386850            -0.164199            1            -0.597823    [8[6[1][1][1]][1]]                                          
  H          -6.448163            -4.934759             0.027422            1             0.402573    [1[8[6]]]                                                   
  H          -6.388776            -6.694075            -1.548613            1             0.031932    [1[6[8][1][1]]]                                             
  H          -5.631789            -5.249552            -2.203677            1             0.031932    [1[6[8][1][1]]]                                             
  H          -4.609903            -6.444111            -1.591280            1             0.031932    [1[6[8][1][1]]]                                             
