12

  C          -4.397125            -7.593060            -10.839823           0             0.099454    [6[8[1]][1][1][1]]                                          
  O          -4.202316            -8.964188            -11.107021           0            -0.597823    [8[6[1][1][1]][1]]                                          
  H          -5.042504            -9.349486            -11.080620           0             0.402573    [1[8[6]]]                                                   
  H          -5.053239            -7.373010            -10.011849           0             0.031932    [1[6[8][1][1]]]                                             
  H          -3.476378            -7.130394            -10.584298           0             0.031932    [1[6[8][1][1]]]                                             
  H          -4.792753            -7.068452            -11.742962           0             0.031932    [1[6[8][1][1]]]                                             
  C          -8.680433            -5.354804            -10.329270           1             0.099454    [6[8[1]][1][1][1]]                                          
  O          -7.416622            -5.653271            -10.916277           1            -0.597823    [8[6[1][1][1]][1]]                                          
  H          -7.543973            -5.688612            -11.859325           1             0.402573    [1[8[6]]]                                                   
  H          -8.566519            -4.921845            -9.377423            1             0.031932    [1[6[8][1][1]]]                                             
  H          -9.152901            -4.663491            -10.964700           1             0.031932    [1[6[8][1][1]]]                                             
  H          -9.293668            -6.336135            -10.267188           1             0.031932    [1[6[8][1][1]]]                                             
