12

  C          -4.577794            -8.204555             0.758113            0             0.099454    [6[8[1]][1][1][1]]                                          
  O          -3.963812            -6.878370             0.949898            0            -0.597823    [8[6[1][1][1]][1]]                                          
  H          -4.601478            -6.202893             0.636504            0             0.402573    [1[8[6]]]                                                   
  H          -4.823748            -8.459030            -0.313163            0             0.031932    [1[6[8][1][1]]]                                             
  H          -3.861738            -8.947558             1.107325            0             0.031932    [1[6[8][1][1]]]                                             
  H          -5.539757            -8.212242             1.264604            0             0.031932    [1[6[8][1][1]]]                                             
  C          -6.826879            -4.018739            -0.087130            1             0.099454    [6[8[1]][1][1][1]]                                          
  O          -6.198278            -4.970854             0.736320            1            -0.597823    [8[6[1][1][1]][1]]                                          
  H          -5.765624            -4.521094             1.457970            1             0.402573    [1[8[6]]]                                                   
  H          -6.457345            -3.047457             0.212081            1             0.031932    [1[6[8][1][1]]]                                             
  H          -6.720322            -4.081196            -1.169037            1             0.031932    [1[6[8][1][1]]]                                             
  H          -7.908160            -4.056641             0.147023            1             0.031932    [1[6[8][1][1]]]                                             
