12

  C          -8.934558             5.392683             6.376029            0             0.099454    [6[8[1]][1][1][1]]                                          
  O          -7.925319             6.303547             6.716074            0            -0.597823    [8[6[1][1][1]][1]]                                          
  H          -7.029661             6.104231             6.322071            0             0.402573    [1[8[6]]]                                                   
  H          -9.282850             4.858832             7.225473            0             0.031932    [1[6[8][1][1]]]                                             
  H          -9.797784             5.918443             5.908955            0             0.031932    [1[6[8][1][1]]]                                             
  H          -8.740724             4.643743             5.591054            0             0.031932    [1[6[8][1][1]]]                                             
  C          -3.878778             5.226953             5.247885            1             0.099454    [6[8[1]][1][1][1]]                                          
  O          -5.224629             5.348015             5.544506            1            -0.597823    [8[6[1][1][1]][1]]                                          
  H          -5.445611             4.485523             5.841927            1             0.402573    [1[8[6]]]                                                   
  H          -3.546686             4.160902             5.104983            1             0.031932    [1[6[8][1][1]]]                                             
  H          -3.680878             5.721709             4.364814            1             0.031932    [1[6[8][1][1]]]                                             
  H          -3.217609             5.667860             6.069473            1             0.031932    [1[6[8][1][1]]]                                             
