12

  C          -8.906481            -10.604438            0.152524            0             0.099454    [6[8[1]][1][1][1]]                                          
  O          -9.199290            -11.900716            0.430674            0            -0.597823    [8[6[1][1][1]][1]]                                          
  H          -8.941215            -12.120148            1.337078            0             0.402573    [1[8[6]]]                                                   
  H          -7.833461            -10.391350            0.287520            0             0.031932    [1[6[8][1][1]]]                                             
  H          -9.113330            -10.162461           -0.831296            0             0.031932    [1[6[8][1][1]]]                                             
  H          -9.423543            -9.981549             0.928955            0             0.031932    [1[6[8][1][1]]]                                             
  C          -8.340799            -7.463451            -1.825485            1             0.099454    [6[8[1]][1][1][1]]                                          
  O          -9.547389            -8.055020            -2.254441            1            -0.597823    [8[6[1][1][1]][1]]                                          
  H          -10.238468           -7.410873            -1.993551            1             0.402573    [1[8[6]]]                                                   
  H          -7.498366            -7.871612            -2.381904            1             0.031932    [1[6[8][1][1]]]                                             
  H          -8.376647            -6.319870            -1.937428            1             0.031932    [1[6[8][1][1]]]                                             
  H          -8.097483            -7.847441            -0.828746            1             0.031932    [1[6[8][1][1]]]                                             
