12

  C          -10.411031           -6.497166            -1.425488            0             0.099454    [6[8[1]][1][1][1]]                                          
  O          -10.103061           -6.686543            -0.088535            0            -0.597823    [8[6[1][1][1]][1]]                                          
  H          -9.212419            -6.309215             0.118963            0             0.402573    [1[8[6]]]                                                   
  H          -11.253937           -5.788915            -1.566383            0             0.031932    [1[6[8][1][1]]]                                             
  H          -9.499957            -5.949211            -1.949446            0             0.031932    [1[6[8][1][1]]]                                             
  H          -10.717005           -7.407105            -1.952296            0             0.031932    [1[6[8][1][1]]]                                             
  C          -8.722772            -5.701760             3.170103            1             0.099454    [6[8[1]][1][1][1]]                                          
  O          -8.851044            -5.193375             1.913721            1            -0.597823    [8[6[1][1][1]][1]]                                          
  H          -9.216482            -4.245808             1.955652            1             0.402573    [1[8[6]]]                                                   
  H          -8.257853            -6.713233             3.098251            1             0.031932    [1[6[8][1][1]]]                                             
  H          -8.085925            -5.080050             3.783799            1             0.031932    [1[6[8][1][1]]]                                             
  H          -9.657837            -5.779240             3.644366            1             0.031932    [1[6[8][1][1]]]                                             
