12

  C          -11.310636           -6.749428            -0.716338            0             0.099454    [6[8[1]][1][1][1]]                                          
  O          -10.161018           -6.596171             0.174576            0            -0.597823    [8[6[1][1][1]][1]]                                          
  H          -10.318668           -6.843313             1.117006            0             0.402573    [1[8[6]]]                                                   
  H          -11.063202           -6.918290            -1.771602            0             0.031932    [1[6[8][1][1]]]                                             
  H          -11.690728           -7.749996            -0.577357            0             0.031932    [1[6[8][1][1]]]                                             
  H          -12.139721           -6.115864            -0.581882            0             0.031932    [1[6[8][1][1]]]                                             
  C          -9.264148            -6.704669             3.638234            1             0.099454    [6[8[1]][1][1][1]]                                          
  O          -10.321744           -6.155424             2.857024            1            -0.597823    [8[6[1][1][1]][1]]                                          
  H          -10.265053           -5.168115             3.047983            1             0.402573    [1[8[6]]]                                                   
  H          -8.352271            -6.800922             3.072266            1             0.031932    [1[6[8][1][1]]]                                             
  H          -8.955576            -6.037905             4.503444            1             0.031932    [1[6[8][1][1]]]                                             
  H          -9.506929            -7.765594             3.969996            1             0.031932    [1[6[8][1][1]]]                                             
