12

  C          -2.565252             4.718114            -0.085181            0             0.099454    [6[8[1]][1][1][1]]                                          
  O          -2.001019             4.805665            -1.430314            0            -0.597823    [8[6[1][1][1]][1]]                                          
  H          -1.240345             5.338943            -1.221299            0             0.402573    [1[8[6]]]                                                   
  H          -1.779562             4.387065             0.613376            0             0.031932    [1[6[8][1][1]]]                                             
  H          -2.893558             5.626545             0.347260            0             0.031932    [1[6[8][1][1]]]                                             
  H          -3.394099             4.098800             0.009473            0             0.031932    [1[6[8][1][1]]]                                             
  C          -7.713229             4.227343            -0.511895            1             0.099454    [6[8[1]][1][1][1]]                                          
  O          -8.035849             5.574030            -0.400636            1            -0.597823    [8[6[1][1][1]][1]]                                          
  H          -8.691770             5.566973             0.273674            1             0.402573    [1[8[6]]]                                                   
  H          -8.487679             3.694594            -1.122684            1             0.031932    [1[6[8][1][1]]]                                             
  H          -6.772463             4.108117            -0.921444            1             0.031932    [1[6[8][1][1]]]                                             
  H          -7.696652             3.838080             0.479152            1             0.031932    [1[6[8][1][1]]]                                             
