12

  C          -2.012563             4.665636            -1.975602            0             0.099454    [6[8[1]][1][1][1]]                                          
  O          -2.587163             3.443356            -2.387225            0            -0.597823    [8[6[1][1][1]][1]]                                          
  H          -2.699769             2.832937            -1.683804            0             0.402573    [1[8[6]]]                                                   
  H          -1.104865             4.452574            -1.373677            0             0.031932    [1[6[8][1][1]]]                                             
  H          -1.693675             5.183946            -2.882772            0             0.031932    [1[6[8][1][1]]]                                             
  H          -2.766827             5.318061            -1.491630            0             0.031932    [1[6[8][1][1]]]                                             
  C           1.563923             4.822854            -2.055716            1             0.099454    [6[8[1]][1][1][1]]                                          
  O           1.026069             5.666654            -3.070397            1            -0.597823    [8[6[1][1][1]][1]]                                          
  H           1.205890             5.204161            -3.879448            1             0.402573    [1[8[6]]]                                                   
  H           1.124852             3.829493            -2.152610            1             0.031932    [1[6[8][1][1]]]                                             
  H           2.630486             4.837886            -2.065390            1             0.031932    [1[6[8][1][1]]]                                             
  H           1.210527             5.130865            -1.082344            1             0.031932    [1[6[8][1][1]]]                                             
