12

  C           7.783129            -4.327830            -2.139949            0             0.099454    [6[8[1]][1][1][1]]                                          
  O           8.538829            -3.183352            -2.235793            0            -0.597823    [8[6[1][1][1]][1]]                                          
  H           9.186373            -3.113510            -1.593900            0             0.402573    [1[8[6]]]                                                   
  H           8.386808            -5.185219            -2.334048            0             0.031932    [1[6[8][1][1]]]                                             
  H           7.505781            -4.489280            -1.123958            0             0.031932    [1[6[8][1][1]]]                                             
  H           6.890016            -4.297037            -2.756172            0             0.031932    [1[6[8][1][1]]]                                             
  C           6.052459            -0.577581            -2.221207            1             0.099454    [6[8[1]][1][1][1]]                                          
  O           5.835550            -0.384914            -0.774056            1            -0.597823    [8[6[1][1][1]][1]]                                          
  H           4.949148             0.047376            -0.599951            1             0.402573    [1[8[6]]]                                                   
  H           7.008782            -0.158197            -2.446619            1             0.031932    [1[6[8][1][1]]]                                             
  H           6.104852            -1.602942            -2.502859            1             0.031932    [1[6[8][1][1]]]                                             
  H           5.284210            -0.090443            -2.900341            1             0.031932    [1[6[8][1][1]]]                                             
