12

  C           5.542015             10.680437           -0.691978            0             0.099454    [6[8[1]][1][1][1]]                                          
  O           6.160653             11.159139           -1.887757            0            -0.597823    [8[6[1][1][1]][1]]                                          
  H           6.573102             10.470271           -2.373774            0             0.402573    [1[8[6]]]                                                   
  H           5.940830             11.268965            0.206580            0             0.031932    [1[6[8][1][1]]]                                             
  H           4.456905             10.788980           -0.753969            0             0.031932    [1[6[8][1][1]]]                                             
  H           5.760810             9.654491            -0.559294            0             0.031932    [1[6[8][1][1]]]                                             
  C           9.857625             7.522086            -3.895079            1             0.099454    [6[8[1]][1][1][1]]                                          
  O           9.909800             8.813567            -3.346686            1            -0.597823    [8[6[1][1][1]][1]]                                          
  H           9.069499             9.261982            -3.402323            1             0.402573    [1[8[6]]]                                                   
  H           10.158848            7.470738            -4.929036            1             0.031932    [1[6[8][1][1]]]                                             
  H           10.392826            6.794359            -3.291123            1             0.031932    [1[6[8][1][1]]]                                             
  H           8.808153             7.219059            -3.995173            1             0.031932    [1[6[8][1][1]]]                                             
