12

  C          -5.713303             3.277059            -8.206859            0             0.099454    [6[8[1]][1][1][1]]                                          
  O          -6.575882             4.002140            -9.087168            0            -0.597823    [8[6[1][1][1]][1]]                                          
  H          -6.399172             4.927764            -9.038590            0             0.402573    [1[8[6]]]                                                   
  H          -5.820958             3.609487            -7.198915            0             0.031932    [1[6[8][1][1]]]                                             
  H          -5.852943             2.193454            -8.268895            0             0.031932    [1[6[8][1][1]]]                                             
  H          -4.677271             3.379742            -8.473651            0             0.031932    [1[6[8][1][1]]]                                             
  C          -8.711113             4.998661            -11.379496           1             0.099454    [6[8[1]][1][1][1]]                                          
  O          -8.723463             6.327535            -11.956833           1            -0.597823    [8[6[1][1][1]][1]]                                          
  H          -7.937522             6.805973            -11.759743           1             0.402573    [1[8[6]]]                                                   
  H          -8.775803             5.166121            -10.332796           1             0.031932    [1[6[8][1][1]]]                                             
  H          -9.496907             4.404988            -11.736539           1             0.031932    [1[6[8][1][1]]]                                             
  H          -7.811904             4.469691            -11.588719           1             0.031932    [1[6[8][1][1]]]                                             
