12

  C           8.306979            -1.199292            -5.182348            0             0.099454    [6[8[1]][1][1][1]]                                          
  O           7.537905            -1.703815            -6.246899            0            -0.597823    [8[6[1][1][1]][1]]                                          
  H           7.832907            -1.390369            -7.097220            0             0.402573    [1[8[6]]]                                                   
  H           8.184739            -0.143854            -5.200148            0             0.031932    [1[6[8][1][1]]]                                             
  H           8.096430            -1.585496            -4.205000            0             0.031932    [1[6[8][1][1]]]                                             
  H           9.355720            -1.370345            -5.333518            0             0.031932    [1[6[8][1][1]]]                                             
  C           9.157100             2.402811            -6.691442            1             0.099454    [6[8[1]][1][1][1]]                                          
  O           9.237402             1.357602            -5.794396            1            -0.597823    [8[6[1][1][1]][1]]                                          
  H           9.548221             1.587580            -4.903882            1             0.402573    [1[8[6]]]                                                   
  H           8.754190             3.291176            -6.171335            1             0.031932    [1[6[8][1][1]]]                                             
  H           10.147818            2.677296            -7.054864            1             0.031932    [1[6[8][1][1]]]                                             
  H           8.529204             2.090750            -7.562426            1             0.031932    [1[6[8][1][1]]]                                             
