12

  C          -6.192142             3.316149            -6.809267            0             0.099454    [6[8[1]][1][1][1]]                                          
  O          -7.336972             3.537002            -7.548146            0            -0.597823    [8[6[1][1][1]][1]]                                          
  H          -7.789556             2.702504            -7.730848            0             0.402573    [1[8[6]]]                                                   
  H          -5.550803             2.508840            -7.203394            0             0.031932    [1[6[8][1][1]]]                                             
  H          -5.617500             4.249866            -6.681300            0             0.031932    [1[6[8][1][1]]]                                             
  H          -6.487296             3.059654            -5.826811            0             0.031932    [1[6[8][1][1]]]                                             
  C          -7.406621            -1.062606            -5.903901            1             0.099454    [6[8[1]][1][1][1]]                                          
  O          -6.974387             0.219346            -6.228345            1            -0.597823    [8[6[1][1][1]][1]]                                          
  H          -7.660141             0.893785            -5.989689            1             0.402573    [1[8[6]]]                                                   
  H          -7.602370            -1.107406            -4.873669            1             0.031932    [1[6[8][1][1]]]                                             
  H          -8.227226            -1.407391            -6.541051            1             0.031932    [1[6[8][1][1]]]                                             
  H          -6.599956            -1.807910            -5.961405            1             0.031932    [1[6[8][1][1]]]                                             
