12

  C           8.730308             3.899226             2.149717            0             0.099454    [6[8[1]][1][1][1]]                                          
  O           8.727510             4.515731             3.391171            0            -0.597823    [8[6[1][1][1]][1]]                                          
  H           8.971102             3.845364             4.096785            0             0.402573    [1[8[6]]]                                                   
  H           7.977863             3.093714             1.981061            0             0.031932    [1[6[8][1][1]]]                                             
  H           8.611493             4.563490             1.375801            0             0.031932    [1[6[8][1][1]]]                                             
  H           9.723099             3.443428             1.923112            0             0.031932    [1[6[8][1][1]]]                                             
  C           9.438769             1.972816             6.617335            1             0.099454    [6[8[1]][1][1][1]]                                          
  O           8.623969             3.030773             6.251968            1            -0.597823    [8[6[1][1][1]][1]]                                          
  H           8.260408             3.600270             7.019287            1             0.402573    [1[8[6]]]                                                   
  H           9.315507             1.715100             7.682329            1             0.031932    [1[6[8][1][1]]]                                             
  H           9.288691             1.007495             6.008580            1             0.031932    [1[6[8][1][1]]]                                             
  H           10.478213            2.223850             6.555681            1             0.031932    [1[6[8][1][1]]]                                             
