12

  C          -2.012563             4.665636            -1.975602            0             0.099454    [6[8[1]][1][1][1]]                                          
  O          -2.587163             3.443356            -2.387225            0            -0.597823    [8[6[1][1][1]][1]]                                          
  H          -2.699769             2.832937            -1.683804            0             0.402573    [1[8[6]]]                                                   
  H          -1.104865             4.452574            -1.373677            0             0.031932    [1[6[8][1][1]]]                                             
  H          -1.693675             5.183946            -2.882772            0             0.031932    [1[6[8][1][1]]]                                             
  H          -2.766827             5.318061            -1.491630            0             0.031932    [1[6[8][1][1]]]                                             
  C          -4.378102             8.116178            -2.250395            1             0.099454    [6[8[1]][1][1][1]]                                          
  O          -3.265974             7.812544            -1.458457            1            -0.597823    [8[6[1][1][1]][1]]                                          
  H          -2.526704             7.889954            -2.099805            1             0.402573    [1[8[6]]]                                                   
  H          -4.643488             7.304127            -2.928239            1             0.031932    [1[6[8][1][1]]]                                             
  H          -5.245410             8.405091            -1.698347            1             0.031932    [1[6[8][1][1]]]                                             
  H          -4.190495             8.981392            -2.876955            1             0.031932    [1[6[8][1][1]]]                                             
