12

  C          -6.537164            -10.554918           -5.514291            0             0.099454    [6[8[1]][1][1][1]]                                          
  O          -6.717694            -9.433943            -4.689288            0            -0.597823    [8[6[1][1][1]][1]]                                          
  H          -6.575335            -8.664448            -5.248633            0             0.402573    [1[8[6]]]                                                   
  H          -7.038478            -11.478137           -5.017293            0             0.031932    [1[6[8][1][1]]]                                             
  H          -7.143982            -10.434640           -6.380842            0             0.031932    [1[6[8][1][1]]]                                             
  H          -5.516036            -10.789882           -5.758788            0             0.031932    [1[6[8][1][1]]]                                             
  C          -4.870596            -6.612255            -4.962840            1             0.099454    [6[8[1]][1][1][1]]                                          
  O          -5.290943            -7.335482            -6.146061            1            -0.597823    [8[6[1][1][1]][1]]                                          
  H          -5.055557            -6.854106            -6.930883            1             0.402573    [1[8[6]]]                                                   
  H          -3.780154            -6.591412            -4.784003            1             0.031932    [1[6[8][1][1]]]                                             
  H          -5.300644            -5.591864            -5.006996            1             0.031932    [1[6[8][1][1]]]                                             
  H          -5.345215            -7.010117            -4.089669            1             0.031932    [1[6[8][1][1]]]                                             
