12

  C          -5.734501            -10.192023           -5.611026            0             0.099454    [6[8[1]][1][1][1]]                                          
  O          -4.666098            -9.342436            -5.831175            0            -0.597823    [8[6[1][1][1]][1]]                                          
  H          -5.044080            -8.663797            -6.404960            0             0.402573    [1[8[6]]]                                                   
  H          -6.608225            -9.629141            -5.369410            0             0.031932    [1[6[8][1][1]]]                                             
  H          -5.796766            -10.794661           -6.500832            0             0.031932    [1[6[8][1][1]]]                                             
  H          -5.543738            -10.761625           -4.659608            0             0.031932    [1[6[8][1][1]]]                                             
  C          -1.109808            -10.595405           -9.059613            1             0.099454    [6[8[1]][1][1][1]]                                          
  O          -2.281222            -10.218537           -9.794893            1            -0.597823    [8[6[1][1][1]][1]]                                          
  H          -2.926858            -10.739720           -9.263907            1             0.402573    [1[8[6]]]                                                   
  H          -0.354203            -9.784968            -9.105502            1             0.031932    [1[6[8][1][1]]]                                             
  H          -1.297291            -10.785663           -7.994181            1             0.031932    [1[6[8][1][1]]]                                             
  H          -0.589992            -11.475941           -9.246630            1             0.031932    [1[6[8][1][1]]]                                             
