6

  C           10.538769           -11.833647            1.276454            0             0.089063    [6[8[1]][1][1][1]]                                          
  O           9.190175            -11.804958            1.401057            0            -0.604789    [8[6[1][1][1]][1]]                                          
  H           8.884010            -11.609698            2.284324            0             0.406250    [1[8[6]]]                                                   
  H           10.999319           -12.680412            0.669984            0             0.036492    [1[6[8][1][1]]]                                             
  H           11.005738           -10.876432            0.896081            0             0.036492    [1[6[8][1][1]]]                                             
  H           11.001721           -11.967255            2.217853            0             0.036492    [1[6[8][1][1]]]                                             
