12

  C           3.221137             7.634066             8.195643            0             0.099454    [6[8[1]][1][1][1]]                                          
  O           3.982834             7.118366             9.205529            0            -0.597823    [8[6[1][1][1]][1]]                                          
  H           4.894659             7.152275             8.965242            0             0.402573    [1[8[6]]]                                                   
  H           3.626544             8.552249             7.826368            0             0.031932    [1[6[8][1][1]]]                                             
  H           3.290289             6.915142             7.335799            0             0.031932    [1[6[8][1][1]]]                                             
  H           2.201108             7.700457             8.443460            0             0.031932    [1[6[8][1][1]]]                                             
  C           3.347516             2.510579             7.905746            1             0.099454    [6[8[1]][1][1][1]]                                          
  O           2.922121             1.520003             7.053050            1            -0.597823    [8[6[1][1][1]][1]]                                          
  H           3.423921             0.693581             7.132739            1             0.402573    [1[8[6]]]                                                   
  H           4.440464             2.763975             7.918784            1             0.031932    [1[6[8][1][1]]]                                             
  H           2.761968             3.416181             7.826046            1             0.031932    [1[6[8][1][1]]]                                             
  H           3.109263             2.132877             8.914459            1             0.031932    [1[6[8][1][1]]]                                             
