12

  C          -8.943252            -7.348248             2.064146            0             0.099454    [6[8[1]][1][1][1]]                                          
  O          -8.854877            -8.616783             1.511822            0            -0.597823    [8[6[1][1][1]][1]]                                          
  H          -9.785357            -8.938947             1.557192            0             0.402573    [1[8[6]]]                                                   
  H          -7.983475            -6.876313             1.956709            0             0.031932    [1[6[8][1][1]]]                                             
  H          -9.635888            -6.670991             1.500144            0             0.031932    [1[6[8][1][1]]]                                             
  H          -9.236388            -7.364689             3.074729            0             0.031932    [1[6[8][1][1]]]                                             
  C          -9.719189            -10.032494            4.830573            1             0.099454    [6[8[1]][1][1][1]]                                          
  O          -11.066356           -10.337419            5.061166            1            -0.597823    [8[6[1][1][1]][1]]                                          
  H          -11.654622           -9.662701             4.681708            1             0.402573    [1[8[6]]]                                                   
  H          -9.196766            -10.910601            4.378142            1             0.031932    [1[6[8][1][1]]]                                             
  H          -9.503730            -9.203898             4.141991            1             0.031932    [1[6[8][1][1]]]                                             
  H          -9.222030            -9.818260             5.799815            1             0.031932    [1[6[8][1][1]]]                                             
