6
Coordinates from ORCA-job 5_geo_opt
  C   3.01135857642497     -1.18092832687030      0.59852346850681
  O   4.39469502702310     -1.12802741314297      0.87428220555614
  H   4.77218367999210     -0.37898755396573      0.41248388571365
  H   2.80644418225238     -1.31897319699397     -0.46931727953546
  H   2.61153086232150     -2.04025327249837      1.13587284598523
  H   2.48478767198594     -0.28452023652866      0.94565487377363
