12

  C           2.263257            -4.148155             5.412082            0             0.099454    [6[8[1]][1][1][1]]                                          
  O           2.954997            -4.750595             6.535683            0            -0.597823    [8[6[1][1][1]][1]]                                          
  H           3.854224            -4.751128             6.203519            0             0.402573    [1[8[6]]]                                                   
  H           2.189910            -3.055356             5.686844            0             0.031932    [1[6[8][1][1]]]                                             
  H           2.686634            -4.323060             4.395248            0             0.031932    [1[6[8][1][1]]]                                             
  H           1.297417            -4.690642             5.387383            0             0.031932    [1[6[8][1][1]]]                                             
  C           0.607011            -7.194764             7.583531            1             0.099454    [6[8[1]][1][1][1]]                                          
  O          -0.015900            -7.070037             8.815631            1            -0.597823    [8[6[1][1][1]][1]]                                          
  H           0.676511            -6.625302             9.362851            1             0.402573    [1[8[6]]]                                                   
  H           1.573130            -7.713759             7.717677            1             0.031932    [1[6[8][1][1]]]                                             
  H          -0.049744            -7.504817             6.721387            1             0.031932    [1[6[8][1][1]]]                                             
  H           0.908719            -6.242453             7.211065            1             0.031932    [1[6[8][1][1]]]                                             
