12

  C          -8.129989            -1.571884            -2.225522            0             0.099454    [6[8[1]][1][1][1]]                                          
  O          -8.222759            -0.794738            -3.392782            0            -0.597823    [8[6[1][1][1]][1]]                                          
  H          -9.121631            -0.441350            -3.413433            0             0.402573    [1[8[6]]]                                                   
  H          -9.139452            -1.760697            -1.839982            0             0.031932    [1[6[8][1][1]]]                                             
  H          -7.694498            -2.543217            -2.506022            0             0.031932    [1[6[8][1][1]]]                                             
  H          -7.554481            -1.152967            -1.411598            0             0.031932    [1[6[8][1][1]]]                                             
  C          -10.777602            1.030449            -1.777996            1             0.099454    [6[8[1]][1][1][1]]                                          
  O          -10.678284            0.377406            -2.983869            1            -0.597823    [8[6[1][1][1]][1]]                                          
  H          -11.158741            0.888158            -3.630139            1             0.402573    [1[8[6]]]                                                   
  H          -10.704947            2.088159            -1.815619            1             0.031932    [1[6[8][1][1]]]                                             
  H          -11.597081            0.684501            -1.143351            1             0.031932    [1[6[8][1][1]]]                                             
  H          -9.859059             0.880859            -1.216230            1             0.031932    [1[6[8][1][1]]]                                             
