12

  C          -4.824653            -10.147423            5.995258            0             0.099454    [6[8[1]][1][1][1]]                                          
  O          -3.540694            -9.794573             6.520729            0            -0.597823    [8[6[1][1][1]][1]]                                          
  H          -3.402781            -8.849417             6.277806            0             0.402573    [1[8[6]]]                                                   
  H          -5.412021            -9.291457             5.854448            0             0.031932    [1[6[8][1][1]]]                                             
  H          -4.591156            -10.588656            5.073679            0             0.031932    [1[6[8][1][1]]]                                             
  H          -5.447185            -10.807198            6.600243            0             0.031932    [1[6[8][1][1]]]                                             
  C          -7.193107            -8.624817             10.539829           1             0.099454    [6[8[1]][1][1][1]]                                          
  O          -6.738471            -9.928603             10.459314           1            -0.597823    [8[6[1][1][1]][1]]                                          
  H          -5.824871            -9.846630             10.505111           1             0.402573    [1[8[6]]]                                                   
  H          -6.547825            -7.901192             10.145275           1             0.031932    [1[6[8][1][1]]]                                             
  H          -8.168304            -8.562995             10.055341           1             0.031932    [1[6[8][1][1]]]                                             
  H          -7.328694            -8.438198             11.617668           1             0.031932    [1[6[8][1][1]]]                                             
