12

  C          -1.552654            -0.347999             4.263472            0             0.099454    [6[8[1]][1][1][1]]                                          
  O          -0.675985            -0.786314             3.238730            0            -0.597823    [8[6[1][1][1]][1]]                                          
  H          -1.311521            -0.903148             2.507645            0             0.402573    [1[8[6]]]                                                   
  H          -1.893925             0.644904             3.934240            0             0.031932    [1[6[8][1][1]]]                                             
  H          -2.420135            -0.936720             4.503697            0             0.031932    [1[6[8][1][1]]]                                             
  H          -1.047543            -0.169033             5.200596            0             0.031932    [1[6[8][1][1]]]                                             
  C          -0.007571             2.884202             0.553842            1             0.099454    [6[8[1]][1][1][1]]                                          
  O          -0.961278             2.596705            -0.447890            1            -0.597823    [8[6[1][1][1]][1]]                                          
  H          -1.309672             3.448110            -0.727636            1             0.402573    [1[8[6]]]                                                   
  H          -0.458122             3.474589             1.324680            1             0.031932    [1[6[8][1][1]]]                                             
  H           0.421138             2.083740             1.150053            1             0.031932    [1[6[8][1][1]]]                                             
  H           0.747337             3.588553             0.238310            1             0.031932    [1[6[8][1][1]]]                                             
