12

  C          -3.609709            -6.212238             11.084964           0             0.099454    [6[8[1]][1][1][1]]                                          
  O          -4.364734            -5.445713             10.082139           0            -0.597823    [8[6[1][1][1]][1]]                                          
  H          -4.900436            -4.779414             10.518448           0             0.402573    [1[8[6]]]                                                   
  H          -3.996064            -6.014864             12.063790           0             0.031932    [1[6[8][1][1]]]                                             
  H          -3.631724            -7.334633             10.985328           0             0.031932    [1[6[8][1][1]]]                                             
  H          -2.523652            -5.863047             11.239573           0             0.031932    [1[6[8][1][1]]]                                             
  C          -3.648083            -3.106244             7.444514            1             0.099454    [6[8[1]][1][1][1]]                                          
  O          -2.585159            -3.555691             8.296022            1            -0.597823    [8[6[1][1][1]][1]]                                          
  H          -2.618639            -3.061493             9.095974            1             0.402573    [1[8[6]]]                                                   
  H          -4.637331            -3.557674             7.707565            1             0.031932    [1[6[8][1][1]]]                                             
  H          -3.848473            -2.049444             7.504523            1             0.031932    [1[6[8][1][1]]]                                             
  H          -3.362883            -3.143375             6.377812            1             0.031932    [1[6[8][1][1]]]                                             
