12

  C           3.968792             8.387656             10.579955           0             0.099454    [6[8[1]][1][1][1]]                                          
  O           3.086890             7.272689             10.231642           0            -0.597823    [8[6[1][1][1]][1]]                                          
  H           2.188274             7.650745             10.307865           0             0.402573    [1[8[6]]]                                                   
  H           3.545260             8.992403             11.442318           0             0.031932    [1[6[8][1][1]]]                                             
  H           4.988270             8.027184             10.820508           0             0.031932    [1[6[8][1][1]]]                                             
  H           4.116574             8.997618             9.652648            0             0.031932    [1[6[8][1][1]]]                                             
  C           1.420045             7.380939             7.427169            1             0.099454    [6[8[1]][1][1][1]]                                          
  O           0.939324             8.125929             8.537015            1            -0.597823    [8[6[1][1][1]][1]]                                          
  H           0.306786             7.546973             8.938717            1             0.402573    [1[8[6]]]                                                   
  H           1.921516             8.051383             6.629556            1             0.031932    [1[6[8][1][1]]]                                             
  H           2.251655             6.753293             7.666494            1             0.031932    [1[6[8][1][1]]]                                             
  H           0.698540             6.672245             6.938021            1             0.031932    [1[6[8][1][1]]]                                             
