12

  C           0.652887            -4.603899            -7.329924            0             0.099454    [6[8[1]][1][1][1]]                                          
  O           1.034029            -3.278051            -7.200782            0            -0.597823    [8[6[1][1][1]][1]]                                          
  H           0.242085            -2.708499            -7.235678            0             0.402573    [1[8[6]]]                                                   
  H          -0.055861            -4.676612            -8.180890            0             0.031932    [1[6[8][1][1]]]                                             
  H           1.491770            -5.297775            -7.503752            0             0.031932    [1[6[8][1][1]]]                                             
  H           0.134496            -4.970212            -6.478246            0             0.031932    [1[6[8][1][1]]]                                             
  C           0.218613            -3.774525            -3.429401            1             0.099454    [6[8[1]][1][1][1]]                                          
  O          -0.607822            -3.042870            -4.238015            1            -0.597823    [8[6[1][1][1]][1]]                                          
  H          -0.933965            -3.609689            -4.932141            1             0.402573    [1[8[6]]]                                                   
  H           0.524269            -3.125596            -2.622507            1             0.031932    [1[6[8][1][1]]]                                             
  H          -0.271415            -4.676162            -3.031674            1             0.031932    [1[6[8][1][1]]]                                             
  H           1.146558            -4.186064            -3.897141            1             0.031932    [1[6[8][1][1]]]                                             
