12

  C          -10.058210           -2.708673             7.810617            0             0.099454    [6[8[1]][1][1][1]]                                          
  O          -9.294148            -2.970554             8.993616            0            -0.597823    [8[6[1][1][1]][1]]                                          
  H          -9.375292            -2.210584             9.623569            0             0.402573    [1[8[6]]]                                                   
  H          -11.093265           -2.415261             8.091974            0             0.031932    [1[6[8][1][1]]]                                             
  H          -9.757479            -1.929562             7.148214            0             0.031932    [1[6[8][1][1]]]                                             
  H          -9.995265            -3.549433             7.215435            0             0.031932    [1[6[8][1][1]]]                                             
  C          -9.740020            -6.566875             8.770903            1             0.099454    [6[8[1]][1][1][1]]                                          
  O          -8.653660            -5.722718             8.868641            1            -0.597823    [8[6[1][1][1]][1]]                                          
  H          -9.038413            -4.819726             8.891017            1             0.402573    [1[8[6]]]                                                   
  H          -10.461432           -6.179090             8.082069            1             0.031932    [1[6[8][1][1]]]                                             
  H          -9.450144            -7.626974             8.478738            1             0.031932    [1[6[8][1][1]]]                                             
  H          -10.238696           -6.602781             9.737871            1             0.031932    [1[6[8][1][1]]]                                             
