12

  C           4.197069            -5.731458             9.963804            0             0.099454    [6[8[1]][1][1][1]]                                          
  O           3.094894            -5.843376             9.191124            0            -0.597823    [8[6[1][1][1]][1]]                                          
  H           2.638128            -4.976491             9.044959            0             0.402573    [1[8[6]]]                                                   
  H           4.671865            -6.648630             10.240441           0             0.031932    [1[6[8][1][1]]]                                             
  H           4.946971            -5.153106             9.403973            0             0.031932    [1[6[8][1][1]]]                                             
  H           3.975430            -5.220114             10.891315           0             0.031932    [1[6[8][1][1]]]                                             
  C           5.828474            -4.478692             5.740824            1             0.099454    [6[8[1]][1][1][1]]                                          
  O           5.992873            -4.691048             4.348628            1            -0.597823    [8[6[1][1][1]][1]]                                          
  H           6.191507            -5.635749             4.191753            1             0.402573    [1[8[6]]]                                                   
  H           6.727600            -4.485124             6.268104            1             0.031932    [1[6[8][1][1]]]                                             
  H           5.386833            -3.495659             5.965815            1             0.031932    [1[6[8][1][1]]]                                             
  H           5.111332            -5.201312             6.076706            1             0.031932    [1[6[8][1][1]]]                                             
