12

  C          -2.564663            -10.829491            0.819036            0             0.099454    [6[8[1]][1][1][1]]                                          
  O          -1.332082            -11.025152            1.444712            0            -0.597823    [8[6[1][1][1]][1]]                                          
  H          -1.579110            -11.609815            2.161669            0             0.402573    [1[8[6]]]                                                   
  H          -2.334350            -10.176657           -0.055430            0             0.031932    [1[6[8][1][1]]]                                             
  H          -2.996839            -11.752730            0.453297            0             0.031932    [1[6[8][1][1]]]                                             
  H          -3.253794            -10.236978            1.399588            0             0.031932    [1[6[8][1][1]]]                                             
  C          -0.808032            -6.187837             1.747127            1             0.099454    [6[8[1]][1][1][1]]                                          
  O          -0.631241            -7.208097             0.807999            1            -0.597823    [8[6[1][1][1]][1]]                                          
  H          -1.330560            -7.909240             0.991292            1             0.402573    [1[8[6]]]                                                   
  H          -0.481562            -5.235415             1.378907            1             0.031932    [1[6[8][1][1]]]                                             
  H          -1.927867            -6.005868             1.953286            1             0.031932    [1[6[8][1][1]]]                                             
  H          -0.339011            -6.318629             2.713605            1             0.031932    [1[6[8][1][1]]]                                             
