12

  C           0.693580             10.738664            9.003647            0             0.099454    [6[8[1]][1][1][1]]                                          
  O          -0.631449             10.218537            8.833525            0            -0.597823    [8[6[1][1][1]][1]]                                          
  H          -0.875626             10.477739            7.931465            0             0.402573    [1[8[6]]]                                                   
  H           0.926423             11.509323            8.158757            0             0.031932    [1[6[8][1][1]]]                                             
  H           0.794173             11.306749            9.896924            0             0.031932    [1[6[8][1][1]]]                                             
  H           1.519966             9.978133             8.991568            0             0.031932    [1[6[8][1][1]]]                                             
  C          -4.487210             10.815205            8.350348            1             0.099454    [6[8[1]][1][1][1]]                                          
  O          -4.551574             10.014269            9.504995            1            -0.597823    [8[6[1][1][1]][1]]                                          
  H          -5.360947             9.518464             9.275820            1             0.402573    [1[8[6]]]                                                   
  H          -5.241380             11.625561            8.355887            1             0.031932    [1[6[8][1][1]]]                                             
  H          -3.526033             11.207367            7.985136            1             0.031932    [1[6[8][1][1]]]                                             
  H          -4.922902             10.255765            7.497466            1             0.031932    [1[6[8][1][1]]]                                             
