12

  C           0.512501             8.461024            -0.689806            0             0.099454    [6[8[1]][1][1][1]]                                          
  O          -0.712721             7.890156            -0.211231            0            -0.597823    [8[6[1][1][1]][1]]                                          
  H          -0.662369             6.949089            -0.202390            0             0.402573    [1[8[6]]]                                                   
  H           0.578281             8.470859            -1.785892            0             0.031932    [1[6[8][1][1]]]                                             
  H           0.672981             9.551212            -0.568216            0             0.031932    [1[6[8][1][1]]]                                             
  H           1.340160             7.905085            -0.222265            0             0.031932    [1[6[8][1][1]]]                                             
  C          -3.343531             6.125688             0.309255            1             0.099454    [6[8[1]][1][1][1]]                                          
  O          -4.783303             6.347521             0.275186            1            -0.597823    [8[6[1][1][1]][1]]                                          
  H          -5.034317             7.018130            -0.422322            1             0.402573    [1[8[6]]]                                                   
  H          -2.895862             5.609519            -0.543921            1             0.031932    [1[6[8][1][1]]]                                             
  H          -2.784280             7.100064             0.629029            1             0.031932    [1[6[8][1][1]]]                                             
  H          -3.128050             5.492418             1.210818            1             0.031932    [1[6[8][1][1]]]                                             
