12

  C           5.326910             4.806322            -3.533113            0             0.099454    [6[8[1]][1][1][1]]                                          
  O           6.034877             3.972360            -4.447765            0            -0.597823    [8[6[1][1][1]][1]]                                          
  H           6.237275             3.163824            -3.960999            0             0.402573    [1[8[6]]]                                                   
  H           6.014065             5.326131            -2.833834            0             0.031932    [1[6[8][1][1]]]                                             
  H           4.817935             5.581777            -4.157801            0             0.031932    [1[6[8][1][1]]]                                             
  H           4.623172             4.233674            -2.922331            0             0.031932    [1[6[8][1][1]]]                                             
  C           2.965190             6.623918             0.967026            1             0.099454    [6[8[1]][1][1][1]]                                          
  O           3.087321             7.178349             2.250108            1            -0.597823    [8[6[1][1][1]][1]]                                          
  H           2.300229             6.975506             2.740599            1             0.402573    [1[8[6]]]                                                   
  H           3.202862             5.599845             0.971613            1             0.031932    [1[6[8][1][1]]]                                             
  H           1.936361             6.698119             0.639535            1             0.031932    [1[6[8][1][1]]]                                             
  H           3.581406             7.209717             0.268602            1             0.031932    [1[6[8][1][1]]]                                             
