6

  C          -10.737882           -7.166619             5.578379            0             0.089063    [6[8[1]][1][1][1]]                                          
  O          -11.296889           -5.903328             5.165799            0            -0.604789    [8[6[1][1][1]][1]]                                          
  H          -10.703437           -5.236791             5.380515            0             0.406250    [1[8[6]]]                                                   
  H          -10.657267           -7.233642             6.703948            0             0.036492    [1[6[8][1][1]]]                                             
  H          -11.226800           -8.111518             5.093600            0             0.036492    [1[6[8][1][1]]]                                             
  H          -9.673293            -7.156465             5.266260            0             0.036492    [1[6[8][1][1]]]                                             
