12

  C           6.823729             6.653392             4.663200            0             0.099454    [6[8[1]][1][1][1]]                                          
  O           5.853408             7.293050             3.735871            0            -0.597823    [8[6[1][1][1]][1]]                                          
  H           5.958699             6.875321             2.844677            0             0.402573    [1[8[6]]]                                                   
  H           6.405214             6.361899             5.666741            0             0.031932    [1[6[8][1][1]]]                                             
  H           7.327214             5.758224             4.307533            0             0.031932    [1[6[8][1][1]]]                                             
  H           7.632612             7.335827             4.701187            0             0.031932    [1[6[8][1][1]]]                                             
  C           3.331205             8.879087             6.004327            1             0.099454    [6[8[1]][1][1][1]]                                          
  O           4.379538             9.384621             5.205546            1            -0.597823    [8[6[1][1][1]][1]]                                          
  H           5.180893             8.897967             5.414773            1             0.402573    [1[8[6]]]                                                   
  H           2.426944             9.554563             6.046449            1             0.031932    [1[6[8][1][1]]]                                             
  H           2.986649             7.898771             5.610622            1             0.031932    [1[6[8][1][1]]]                                             
  H           3.675383             8.766237             7.041271            1             0.031932    [1[6[8][1][1]]]                                             
