12

  C           6.624132             7.413603            -8.245069            0             0.099454    [6[8[1]][1][1][1]]                                          
  O           6.961184             7.120662            -6.934028            0            -0.597823    [8[6[1][1][1]][1]]                                          
  H           6.227871             6.513925            -6.667975            0             0.402573    [1[8[6]]]                                                   
  H           5.636665             7.834157            -8.331550            0             0.031932    [1[6[8][1][1]]]                                             
  H           7.321227             8.095600            -8.805844            0             0.031932    [1[6[8][1][1]]]                                             
  H           6.747616             6.490102            -8.871968            0             0.031932    [1[6[8][1][1]]]                                             
  C           7.313492             5.352219            -3.875000            1             0.099454    [6[8[1]][1][1][1]]                                          
  O           8.583517             5.934951            -3.688472            1            -0.597823    [8[6[1][1][1]][1]]                                          
  H           8.912932             5.914960            -4.629453            1             0.402573    [1[8[6]]]                                                   
  H           6.701947             5.408958            -2.954834            1             0.031932    [1[6[8][1][1]]]                                             
  H           6.815108             5.840686            -4.748789            1             0.031932    [1[6[8][1][1]]]                                             
  H           7.336305             4.377788            -4.229219            1             0.031932    [1[6[8][1][1]]]                                             
