12

  C           1.734911             0.716800             4.327203            0             0.099454    [6[8[1]][1][1][1]]                                          
  O           0.791648            -0.304132             4.276472            0            -0.597823    [8[6[1][1][1]][1]]                                          
  H           1.048376            -0.965579             3.642560            0             0.402573    [1[8[6]]]                                                   
  H           2.449839             0.542115             3.497208            0             0.031932    [1[6[8][1][1]]]                                             
  H           1.264994             1.720495             4.343686            0             0.031932    [1[6[8][1][1]]]                                             
  H           2.275467             0.636369             5.293535            0             0.031932    [1[6[8][1][1]]]                                             
  C          -0.478926            -1.224034             7.517796            1             0.099454    [6[8[1]][1][1][1]]                                          
  O          -0.887550            -0.137277             6.675063            1            -0.597823    [8[6[1][1][1]][1]]                                          
  H          -0.301585            -0.075655             5.910543            1             0.402573    [1[8[6]]]                                                   
  H          -1.273776            -1.963109             7.510648            1             0.031932    [1[6[8][1][1]]]                                             
  H           0.407688            -1.674293             7.115746            1             0.031932    [1[6[8][1][1]]]                                             
  H          -0.179908            -0.907772             8.530023            1             0.031932    [1[6[8][1][1]]]                                             
