6

  C          -5.980714            -2.708293             4.643115            0             0.089063    [6[8[1]][1][1][1]]                                          
  O          -6.313674            -1.414181             4.987013            0            -0.604789    [8[6[1][1][1]][1]]                                          
  H          -7.067591            -1.469599             5.564559            0             0.406250    [1[8[6]]]                                                   
  H          -5.583667            -3.296072             5.487559            0             0.036492    [1[6[8][1][1]]]                                             
  H          -6.869678            -3.353969             4.374738            0             0.036492    [1[6[8][1][1]]]                                             
  H          -5.224844            -2.773486             3.858224            0             0.036492    [1[6[8][1][1]]]                                             
