12

  C          -3.152113            -1.685180             5.511687            0             0.099454    [6[8[1]][1][1][1]]                                          
  O          -3.578452            -2.644021             4.578806            0            -0.597823    [8[6[1][1][1]][1]]                                          
  H          -2.831220            -3.224825             4.420491            0             0.402573    [1[8[6]]]                                                   
  H          -2.231712            -1.127083             5.128433            0             0.031932    [1[6[8][1][1]]]                                             
  H          -3.887088            -1.022022             5.889255            0             0.031932    [1[6[8][1][1]]]                                             
  H          -2.718246            -2.180419             6.352590            0             0.031932    [1[6[8][1][1]]]                                             
  C          -5.704143            -4.582436             9.340201            1             0.099454    [6[8[1]][1][1][1]]                                          
  O          -6.258970            -4.143728             8.110816            1            -0.597823    [8[6[1][1][1]][1]]                                          
  H          -6.607318            -4.873166             7.598088            1             0.402573    [1[8[6]]]                                                   
  H          -5.487212            -3.772024             10.044190           1             0.031932    [1[6[8][1][1]]]                                             
  H          -6.435321            -5.206368             9.937870            1             0.031932    [1[6[8][1][1]]]                                             
  H          -4.824860            -5.154785             9.351215            1             0.031932    [1[6[8][1][1]]]                                             
