12

  C           10.513409           -2.443197             4.555221            0             0.099454    [6[8[1]][1][1][1]]                                          
  O           9.590248            -1.465275             4.817014            0            -0.597823    [8[6[1][1][1]][1]]                                          
  H           9.521846            -0.879403             4.054559            0             0.402573    [1[8[6]]]                                                   
  H           10.702406           -3.145262             5.437291            0             0.031932    [1[6[8][1][1]]]                                             
  H           10.226027           -3.121277             3.698400            0             0.031932    [1[6[8][1][1]]]                                             
  H           11.448458           -1.960485             4.280155            0             0.031932    [1[6[8][1][1]]]                                             
  C           7.234744             1.137100             3.646333            1             0.099454    [6[8[1]][1][1][1]]                                          
  O           8.644821             1.312440             3.660855            1            -0.597823    [8[6[1][1][1]][1]]                                          
  H           8.815920             1.757779             4.445385            1             0.402573    [1[8[6]]]                                                   
  H           6.947070             0.669658             2.727372            1             0.031932    [1[6[8][1][1]]]                                             
  H           6.962892             0.448695             4.396575            1             0.031932    [1[6[8][1][1]]]                                             
  H           6.738247             2.099635             3.923597            1             0.031932    [1[6[8][1][1]]]                                             
