12

  C           1.101496            -2.053978             7.307832            0             0.099454    [6[8[1]][1][1][1]]                                          
  O           1.384987            -2.297058             5.969188            0            -0.597823    [8[6[1][1][1]][1]]                                          
  H           1.151471            -3.185395             5.702275            0             0.402573    [1[8[6]]]                                                   
  H           1.317104            -1.048099             7.698919            0             0.031932    [1[6[8][1][1]]]                                             
  H           0.046442            -2.231063             7.406682            0             0.031932    [1[6[8][1][1]]]                                             
  H           1.610017            -2.809292             7.907819            0             0.031932    [1[6[8][1][1]]]                                             
  C          -3.528699            -0.465896             9.810445            1             0.099454    [6[8[1]][1][1][1]]                                          
  O          -2.873749             0.137173             10.908916           1            -0.597823    [8[6[1][1][1]][1]]                                          
  H          -2.248066             0.745809             10.522661           1             0.402573    [1[8[6]]]                                                   
  H          -2.938057            -0.482912             8.871081            1             0.031932    [1[6[8][1][1]]]                                             
  H          -3.683485            -1.523379             9.932027            1             0.031932    [1[6[8][1][1]]]                                             
  H          -4.535832            -0.016877             9.543679            1             0.031932    [1[6[8][1][1]]]                                             
