12

  C          -5.438823             2.939611             0.653369            0             0.099454    [6[8[1]][1][1][1]]                                          
  O          -5.878226             2.898767             2.003602            0            -0.597823    [8[6[1][1][1]][1]]                                          
  H          -6.781193             3.161789             1.905700            0             0.402573    [1[8[6]]]                                                   
  H          -4.325486             2.925350             0.716673            0             0.031932    [1[6[8][1][1]]]                                             
  H          -5.760783             2.003888             0.186387            0             0.031932    [1[6[8][1][1]]]                                             
  H          -5.762836             3.829153             0.087394            0             0.031932    [1[6[8][1][1]]]                                             
  C          -9.805900             3.760904             2.946252            1             0.099454    [6[8[1]][1][1][1]]                                          
  O          -8.501350             3.221238             2.916457            1            -0.597823    [8[6[1][1][1]][1]]                                          
  H          -8.652052             2.302385             3.242100            1             0.402573    [1[8[6]]]                                                   
  H          -9.828623             4.738476             2.390986            1             0.031932    [1[6[8][1][1]]]                                             
  H          -10.557161            3.187259             2.380926            1             0.031932    [1[6[8][1][1]]]                                             
  H          -10.169463            4.061940             3.910981            1             0.031932    [1[6[8][1][1]]]                                             
