12

  C          -4.824653            -10.147423            5.995258            0             0.099454    [6[8[1]][1][1][1]]                                          
  O          -3.540694            -9.794573             6.520729            0            -0.597823    [8[6[1][1][1]][1]]                                          
  H          -3.402781            -8.849417             6.277806            0             0.402573    [1[8[6]]]                                                   
  H          -5.412021            -9.291457             5.854448            0             0.031932    [1[6[8][1][1]]]                                             
  H          -4.591156            -10.588656            5.073679            0             0.031932    [1[6[8][1][1]]]                                             
  H          -5.447185            -10.807198            6.600243            0             0.031932    [1[6[8][1][1]]]                                             
  C          -4.820240            -6.867480             7.732437            1             0.099454    [6[8[1]][1][1][1]]                                          
  O          -3.651096            -7.047806             6.967407            1            -0.597823    [8[6[1][1][1]][1]]                                          
  H          -2.892290            -6.756424             7.484280            1             0.402573    [1[8[6]]]                                                   
  H          -5.073807            -7.703325             8.381583            1             0.031932    [1[6[8][1][1]]]                                             
  H          -4.832445            -5.895153             8.276370            1             0.031932    [1[6[8][1][1]]]                                             
  H          -5.724504            -6.692857             7.115147            1             0.031932    [1[6[8][1][1]]]                                             
