12

  C           5.509219            -5.286384            -2.629828            0             0.099454    [6[8[1]][1][1][1]]                                          
  O           6.356411            -4.322206            -3.312786            0            -0.597823    [8[6[1][1][1]][1]]                                          
  H           5.806492            -3.659072            -3.753185            0             0.402573    [1[8[6]]]                                                   
  H           4.710320            -5.785805            -3.279945            0             0.031932    [1[6[8][1][1]]]                                             
  H           6.199272            -6.152955            -2.356879            0             0.031932    [1[6[8][1][1]]]                                             
  H           4.910016            -4.863904            -1.771712            0             0.031932    [1[6[8][1][1]]]                                             
  C           3.665648            -7.821168            -5.400636            1             0.099454    [6[8[1]][1][1][1]]                                          
  O           2.313230            -7.911947            -5.669289            1            -0.597823    [8[6[1][1][1]][1]]                                          
  H           1.928492            -8.336179            -4.940872            1             0.402573    [1[8[6]]]                                                   
  H           4.116049            -8.827274            -5.247889            1             0.031932    [1[6[8][1][1]]]                                             
  H           4.117865            -7.403982            -6.311332            1             0.031932    [1[6[8][1][1]]]                                             
  H           3.967369            -7.184332            -4.616387            1             0.031932    [1[6[8][1][1]]]                                             
