12

  C          -8.009871            -4.711269            -2.147200            0             0.099454    [6[8[1]][1][1][1]]                                          
  O          -8.298918            -5.552520            -1.027599            0            -0.597823    [8[6[1][1][1]][1]]                                          
  H          -8.177552            -5.122342            -0.191332            0             0.402573    [1[8[6]]]                                                   
  H          -8.178726            -5.149591            -3.108748            0             0.031932    [1[6[8][1][1]]]                                             
  H          -8.576040            -3.788171            -2.055177            0             0.031932    [1[6[8][1][1]]]                                             
  H          -7.060665            -4.281000            -2.058181            0             0.031932    [1[6[8][1][1]]]                                             
  C          -10.396146           -7.647223            -3.446009            1             0.099454    [6[8[1]][1][1][1]]                                          
  O          -10.484767           -6.889899            -2.261590            1            -0.597823    [8[6[1][1][1]][1]]                                          
  H          -9.554610            -6.738956            -2.021986            1             0.402573    [1[8[6]]]                                                   
  H          -11.373736           -7.836111            -3.842640            1             0.031932    [1[6[8][1][1]]]                                             
  H          -9.853171            -7.138727            -4.248777            1             0.031932    [1[6[8][1][1]]]                                             
  H          -9.812399            -8.584707            -3.369534            1             0.031932    [1[6[8][1][1]]]                                             
