12

  C           4.463888             10.329483            8.452455            0             0.099454    [6[8[1]][1][1][1]]                                          
  O           5.053410             11.626280            8.445353            0            -0.597823    [8[6[1][1][1]][1]]                                          
  H           5.107064             11.999492            9.351809            0             0.402573    [1[8[6]]]                                                   
  H           3.465351             10.341592            8.955897            0             0.031932    [1[6[8][1][1]]]                                             
  H           4.478914             10.000706            7.463618            0             0.031932    [1[6[8][1][1]]]                                             
  H           5.187701             9.732460             8.978266            0             0.031932    [1[6[8][1][1]]]                                             
  C           6.831958             6.294291             6.415026            1             0.099454    [6[8[1]][1][1][1]]                                          
  O           7.505123             6.261990             5.193583            1            -0.597823    [8[6[1][1][1]][1]]                                          
  H           8.148449             6.962906             5.154953            1             0.402573    [1[8[6]]]                                                   
  H           7.482049             6.064620             7.250410            1             0.031932    [1[6[8][1][1]]]                                             
  H           6.397184             7.314095             6.694785            1             0.031932    [1[6[8][1][1]]]                                             
  H           5.952161             5.499594             6.404224            1             0.031932    [1[6[8][1][1]]]                                             
