12

  C          -5.397933             8.476390             10.811701           0             0.099454    [6[8[1]][1][1][1]]                                          
  O          -5.899984             7.597127             9.831516            0            -0.597823    [8[6[1][1][1]][1]]                                          
  H          -5.793788             8.054602             8.995920            0             0.402573    [1[8[6]]]                                                   
  H          -5.739701             8.132426             11.765569           0             0.031932    [1[6[8][1][1]]]                                             
  H          -4.258824             8.333112             10.812335           0             0.031932    [1[6[8][1][1]]]                                             
  H          -5.692249             9.474918             10.582094           0             0.031932    [1[6[8][1][1]]]                                             
  C          -4.077437             8.002392             7.003506            1             0.099454    [6[8[1]][1][1][1]]                                          
  O          -5.403596             8.295965             6.999509            1            -0.597823    [8[6[1][1][1]][1]]                                          
  H          -5.382031             9.287660             6.826207            1             0.402573    [1[8[6]]]                                                   
  H          -3.569949             8.661766             7.728862            1             0.031932    [1[6[8][1][1]]]                                             
  H          -3.863902             6.962664             7.051185            1             0.031932    [1[6[8][1][1]]]                                             
  H          -3.615819             8.224889             6.070402            1             0.031932    [1[6[8][1][1]]]                                             
