12

  C           4.564148             2.486965             9.463505            0             0.099454    [6[8[1]][1][1][1]]                                          
  O           3.292222             2.011616             9.072994            0            -0.597823    [8[6[1][1][1]][1]]                                          
  H           3.299397             1.074400             8.926465            0             0.402573    [1[8[6]]]                                                   
  H           5.309284             2.534749             8.657171            0             0.031932    [1[6[8][1][1]]]                                             
  H           4.380130             3.479184             9.880657            0             0.031932    [1[6[8][1][1]]]                                             
  H           5.041125             1.943326             10.275876           0             0.031932    [1[6[8][1][1]]]                                             
  C          -0.553660             0.821241             9.795528            1             0.099454    [6[8[1]][1][1][1]]                                          
  O           0.118719            -0.429037             9.661285            1            -0.597823    [8[6[1][1][1]][1]]                                          
  H           1.089943            -0.350548             9.540765            1             0.402573    [1[8[6]]]                                                   
  H          -1.549963             0.685756             10.157904           1             0.031932    [1[6[8][1][1]]]                                             
  H          -0.102725             1.589450             10.454278           1             0.031932    [1[6[8][1][1]]]                                             
  H          -0.618877             1.299944             8.856339            1             0.031932    [1[6[8][1][1]]]                                             
