12

  C           7.560265             4.536154             7.578513            0             0.099454    [6[8[1]][1][1][1]]                                          
  O           7.874244             4.951479             8.946684            0            -0.597823    [8[6[1][1][1]][1]]                                          
  H           7.036518             5.037282             9.417587            0             0.402573    [1[8[6]]]                                                   
  H           7.386133             3.502118             7.605481            0             0.031932    [1[6[8][1][1]]]                                             
  H           6.612294             4.970132             7.223736            0             0.031932    [1[6[8][1][1]]]                                             
  H           8.342208             4.520084             6.856980            0             0.031932    [1[6[8][1][1]]]                                             
  C           7.923357             8.083030             6.459957            1             0.099454    [6[8[1]][1][1][1]]                                          
  O           8.573367             7.774205             7.679812            1            -0.597823    [8[6[1][1][1]][1]]                                          
  H           8.042596             7.209100             8.230461            1             0.402573    [1[8[6]]]                                                   
  H           7.225024             7.311763             6.148966            1             0.031932    [1[6[8][1][1]]]                                             
  H           7.301372             9.007147             6.553180            1             0.031932    [1[6[8][1][1]]]                                             
  H           8.629463             8.328790             5.678000            1             0.031932    [1[6[8][1][1]]]                                             
