12

  C           6.939438             8.381128             7.470866            0             0.099454    [6[8[1]][1][1][1]]                                          
  O           6.725867             7.125149             6.925908            0            -0.597823    [8[6[1][1][1]][1]]                                          
  H           6.458362             6.563001             7.707976            0             0.402573    [1[8[6]]]                                                   
  H           6.795791             9.090185             6.659182            0             0.031932    [1[6[8][1][1]]]                                             
  H           6.342889             8.682943             8.259780            0             0.031932    [1[6[8][1][1]]]                                             
  H           7.982865             8.432314             7.760599            0             0.031932    [1[6[8][1][1]]]                                             
  C           3.937609             6.089715             5.121929            1             0.099454    [6[8[1]][1][1][1]]                                          
  O           4.894966             6.938586             4.500561            1            -0.597823    [8[6[1][1][1]][1]]                                          
  H           5.624434             6.969971             5.126123            1             0.402573    [1[8[6]]]                                                   
  H           3.038266             5.905496             4.475867            1             0.031932    [1[6[8][1][1]]]                                             
  H           4.311928             5.107801             5.271609            1             0.031932    [1[6[8][1][1]]]                                             
  H           3.625862             6.468092             6.095905            1             0.031932    [1[6[8][1][1]]]                                             
