12

  C           5.434958             2.875792            -9.733265            0             0.099454    [6[8[1]][1][1][1]]                                          
  O           6.885886             2.877586            -9.509406            0            -0.597823    [8[6[1][1][1]][1]]                                          
  H           7.289825             2.013666            -9.590393            0             0.402573    [1[8[6]]]                                                   
  H           5.137906             3.799958            -10.234967           0             0.031932    [1[6[8][1][1]]]                                             
  H           5.202899             1.890700            -10.161595           0             0.031932    [1[6[8][1][1]]]                                             
  H           4.848795             2.960356            -8.769228            0             0.031932    [1[6[8][1][1]]]                                             
  C           1.640088             1.218589            -6.085047            1             0.099454    [6[8[1]][1][1][1]]                                          
  O           2.583981             2.243841            -5.706473            1            -0.597823    [8[6[1][1][1]][1]]                                          
  H           2.069620             3.124191            -5.709746            1             0.402573    [1[8[6]]]                                                   
  H           0.698687             1.457060            -5.672695            1             0.031932    [1[6[8][1][1]]]                                             
  H           1.460383             1.209941            -7.124691            1             0.031932    [1[6[8][1][1]]]                                             
  H           2.007968             0.263536            -5.750146            1             0.031932    [1[6[8][1][1]]]                                             
