12

  C          -5.192736            -2.225288             6.637700            0             0.099454    [6[8[1]][1][1][1]]                                          
  O          -5.408181            -1.507434             5.386835            0            -0.597823    [8[6[1][1][1]][1]]                                          
  H          -4.517370            -1.420161             5.041826            0             0.402573    [1[8[6]]]                                                   
  H          -4.838058            -1.544956             7.408872            0             0.031932    [1[6[8][1][1]]]                                             
  H          -6.004383            -2.688830             7.117625            0             0.031932    [1[6[8][1][1]]]                                             
  H          -4.338427            -2.918640             6.592779            0             0.031932    [1[6[8][1][1]]]                                             
  C          -5.470393            -1.876097             1.136380            1             0.099454    [6[8[1]][1][1][1]]                                          
  O          -5.868612            -2.423977             2.388435            1            -0.597823    [8[6[1][1][1]][1]]                                          
  H          -6.835133            -2.315790             2.387192            1             0.402573    [1[8[6]]]                                                   
  H          -4.375722            -2.094982             0.894261            1             0.031932    [1[6[8][1][1]]]                                             
  H          -6.064162            -2.282764             0.341504            1             0.031932    [1[6[8][1][1]]]                                             
  H          -5.615935            -0.781423             1.121355            1             0.031932    [1[6[8][1][1]]]                                             
