12

  C           0.666390            -0.715815            -0.420100            0             0.099454    [6[8[1]][1][1][1]]                                          
  O           1.567490             0.321839            -0.143165            0            -0.597823    [8[6[1][1][1]][1]]                                          
  H           1.326093             1.086254            -0.696441            0             0.402573    [1[8[6]]]                                                   
  H          -0.316124            -0.427597            -0.014911            0             0.031932    [1[6[8][1][1]]]                                             
  H           0.543968            -0.926248            -1.464179            0             0.031932    [1[6[8][1][1]]]                                             
  H           1.024687            -1.624058             0.019191            0             0.031932    [1[6[8][1][1]]]                                             
  C           3.721256             2.865454             0.278842            1             0.099454    [6[8[1]][1][1][1]]                                          
  O           3.810652             4.224513             0.718855            1            -0.597823    [8[6[1][1][1]][1]]                                          
  H           3.847158             4.251311             1.654711            1             0.402573    [1[8[6]]]                                                   
  H           4.630489             2.337793             0.330650            1             0.031932    [1[6[8][1][1]]]                                             
  H           3.118835             2.213713             0.975832            1             0.031932    [1[6[8][1][1]]]                                             
  H           3.309772             2.784025            -0.718189            1             0.031932    [1[6[8][1][1]]]                                             
