6

  C          -4.042512            -11.617473            2.754559            0             0.089063    [6[8[1]][1][1][1]]                                          
  O          -4.801691            -10.486147            2.768537            0            -0.604789    [8[6[1][1][1]][1]]                                          
  H          -5.688689            -10.704398            2.382629            0             0.406250    [1[8[6]]]                                                   
  H          -2.950735            -11.246167            2.777801            0             0.036492    [1[6[8][1][1]]]                                             
  H          -4.142107            -12.308251            3.563933            0             0.036492    [1[6[8][1][1]]]                                             
  H          -4.117183            -12.146882            1.769731            0             0.036492    [1[6[8][1][1]]]                                             
