12

  C          -4.658780            -2.037883             7.649658            0             0.099454    [6[8[1]][1][1][1]]                                          
  O          -5.337638            -1.572166             6.540238            0            -0.597823    [8[6[1][1][1]][1]]                                          
  H          -6.235660            -1.469603             6.901389            0             0.402573    [1[8[6]]]                                                   
  H          -3.612432            -1.652803             7.614765            0             0.031932    [1[6[8][1][1]]]                                             
  H          -5.188026            -1.588476             8.460927            0             0.031932    [1[6[8][1][1]]]                                             
  H          -4.629709            -3.094023             7.716798            0             0.031932    [1[6[8][1][1]]]                                             
  C          -5.092731             1.692038             8.397460            1             0.099454    [6[8[1]][1][1][1]]                                          
  O          -4.331788             2.881893             8.249943            1            -0.597823    [8[6[1][1][1]][1]]                                          
  H          -4.203986             3.322232             9.111334            1             0.402573    [1[8[6]]]                                                   
  H          -5.047075             1.267063             9.382715            1             0.031932    [1[6[8][1][1]]]                                             
  H          -6.093993             1.748745             7.895877            1             0.031932    [1[6[8][1][1]]]                                             
  H          -4.575883             0.892153             7.899121            1             0.031932    [1[6[8][1][1]]]                                             
