12

  C          -4.783363             4.112619            -2.570429            0             0.099454    [6[8[1]][1][1][1]]                                          
  O          -6.170966             4.051347            -2.271669            0            -0.597823    [8[6[1][1][1]][1]]                                          
  H          -6.396381             3.112215            -2.297182            0             0.402573    [1[8[6]]]                                                   
  H          -4.677063             4.150604            -3.633048            0             0.031932    [1[6[8][1][1]]]                                             
  H          -4.392991             5.100541            -2.206898            0             0.031932    [1[6[8][1][1]]]                                             
  H          -4.210136             3.298748            -2.150329            0             0.031932    [1[6[8][1][1]]]                                             
  C          -7.362782             6.392833            -0.031246            1             0.099454    [6[8[1]][1][1][1]]                                          
  O          -6.746706             5.358698             0.595294            1            -0.597823    [8[6[1][1][1]][1]]                                          
  H          -7.008309             4.498787             0.148125            1             0.402573    [1[8[6]]]                                                   
  H          -7.361403             7.336571             0.467680            1             0.031932    [1[6[8][1][1]]]                                             
  H          -7.100800             6.503015            -1.023257            1             0.031932    [1[6[8][1][1]]]                                             
  H          -8.394243             6.060086            -0.106421            1             0.031932    [1[6[8][1][1]]]                                             
