12

  C          -0.014004            -8.914242             3.677463            0             0.099454    [6[8[1]][1][1][1]]                                          
  O          -0.243283            -7.666548             3.192443            0            -0.597823    [8[6[1][1][1]][1]]                                          
  H          -0.330893            -7.706242             2.229205            0             0.402573    [1[8[6]]]                                                   
  H           0.478737            -9.580093             2.996806            0             0.031932    [1[6[8][1][1]]]                                             
  H           0.624726            -8.936190             4.581951            0             0.031932    [1[6[8][1][1]]]                                             
  H          -0.910941            -9.473797             3.977538            0             0.031932    [1[6[8][1][1]]]                                             
  C           3.336545            -6.019057            -0.127289            1             0.099454    [6[8[1]][1][1][1]]                                          
  O           2.124200            -6.692143            -0.632479            1            -0.597823    [8[6[1][1][1]][1]]                                          
  H           2.245712            -6.788249            -1.551181            1             0.402573    [1[8[6]]]                                                   
  H           3.279200            -5.674546             0.871108            1             0.031932    [1[6[8][1][1]]]                                             
  H           4.169471            -6.729841            -0.125674            1             0.031932    [1[6[8][1][1]]]                                             
  H           3.693860            -5.153305            -0.729483            1             0.031932    [1[6[8][1][1]]]                                             
