12

  C           8.231847             4.812904             2.218231            0             0.099454    [6[8[1]][1][1][1]]                                          
  O           7.857317             4.358539             3.507066            0            -0.597823    [8[6[1][1][1]][1]]                                          
  H           8.511085             3.740002             3.820354            0             0.402573    [1[8[6]]]                                                   
  H           9.259510             4.563071             1.868465            0             0.031932    [1[6[8][1][1]]]                                             
  H           7.425748             4.418321             1.520043            0             0.031932    [1[6[8][1][1]]]                                             
  H           8.132544             5.888729             2.119775            0             0.031932    [1[6[8][1][1]]]                                             
  C           10.560418            3.098178            -0.880398            1             0.099454    [6[8[1]][1][1][1]]                                          
  O           11.202843            3.408740             0.386204            1            -0.597823    [8[6[1][1][1]][1]]                                          
  H           10.928286            2.683354             0.941212            1             0.402573    [1[8[6]]]                                                   
  H           9.677609             3.810956            -0.896926            1             0.031932    [1[6[8][1][1]]]                                             
  H           11.240863            3.265396            -1.742691            1             0.031932    [1[6[8][1][1]]]                                             
  H           10.141027            2.036011            -0.992917            1             0.031932    [1[6[8][1][1]]]                                             
