6

  C           1.165597            -7.185440            -11.741140           0             0.089063    [6[8[1]][1][1][1]]                                          
  O           0.859460            -8.504145            -11.184009           0            -0.604789    [8[6[1][1][1]][1]]                                          
  H           0.609013            -8.498024            -10.292280           0             0.406250    [1[8[6]]]                                                   
  H           1.274110            -7.373851            -12.803754           0             0.036492    [1[6[8][1][1]]]                                             
  H           0.432952            -6.382476            -11.464724           0             0.036492    [1[6[8][1][1]]]                                             
  H           2.171650            -6.793907            -11.504825           0             0.036492    [1[6[8][1][1]]]                                             
