12

  C          -7.625825            -2.118438             6.216507            0             0.099454    [6[8[1]][1][1][1]]                                          
  O          -6.382549            -1.543956             6.599083            0            -0.597823    [8[6[1][1][1]][1]]                                          
  H          -6.301052            -0.573742             6.507122            0             0.402573    [1[8[6]]]                                                   
  H          -7.759299            -3.193026             6.659678            0             0.031932    [1[6[8][1][1]]]                                             
  H          -8.447343            -1.473519             6.457667            0             0.031932    [1[6[8][1][1]]]                                             
  H          -7.672048            -2.337438             5.139044            0             0.031932    [1[6[8][1][1]]]                                             
  C          -6.950345            -1.578505             9.915400            1             0.099454    [6[8[1]][1][1][1]]                                          
  O          -5.694263            -1.556258             9.285448            1            -0.597823    [8[6[1][1][1]][1]]                                          
  H          -5.710257            -2.238231             8.605258            1             0.402573    [1[8[6]]]                                                   
  H          -6.901772            -0.913918             10.758104           1             0.031932    [1[6[8][1][1]]]                                             
  H          -7.790598            -1.308341             9.307916            1             0.031932    [1[6[8][1][1]]]                                             
  H          -7.195270            -2.597346             10.272989           1             0.031932    [1[6[8][1][1]]]                                             
