12

  C           3.428928             8.666497             5.285069            0             0.099454    [6[8[1]][1][1][1]]                                          
  O           4.762131             8.230754             5.347500            0            -0.597823    [8[6[1][1][1]][1]]                                          
  H           4.851017             7.570642             4.577961            0             0.402573    [1[8[6]]]                                                   
  H           3.003292             8.738284             4.342669            0             0.031932    [1[6[8][1][1]]]                                             
  H           2.793504             7.932422             5.811546            0             0.031932    [1[6[8][1][1]]]                                             
  H           3.320919             9.639837             5.807513            0             0.031932    [1[6[8][1][1]]]                                             
  C           0.832058             9.154286             9.672728            1             0.099454    [6[8[1]][1][1][1]]                                          
  O           2.258457             9.283263             9.531956            1            -0.597823    [8[6[1][1][1]][1]]                                          
  H           2.475014             10.214120            9.492271            1             0.402573    [1[8[6]]]                                                   
  H           0.358142             9.121555             8.682574            1             0.031932    [1[6[8][1][1]]]                                             
  H           0.517782             8.191760             10.072256           1             0.031932    [1[6[8][1][1]]]                                             
  H           0.342599             9.900114             10.328859           1             0.031932    [1[6[8][1][1]]]                                             
