12

  C          -4.390305            -7.853721            -8.340512            0             0.099454    [6[8[1]][1][1][1]]                                          
  O          -3.239923            -7.533643            -7.534374            0            -0.597823    [8[6[1][1][1]][1]]                                          
  H          -3.454352            -6.886440            -6.874207            0             0.402573    [1[8[6]]]                                                   
  H          -4.282908            -8.754104            -8.899500            0             0.031932    [1[6[8][1][1]]]                                             
  H          -5.215125            -8.003807            -7.642085            0             0.031932    [1[6[8][1][1]]]                                             
  H          -4.738968            -7.005567            -9.008015            0             0.031932    [1[6[8][1][1]]]                                             
  C          -2.539012            -5.629873            -4.086639            1             0.099454    [6[8[1]][1][1][1]]                                          
  O          -3.392645            -6.306400            -4.953503            1            -0.597823    [8[6[1][1][1]][1]]                                          
  H          -4.115533            -5.702665            -5.142074            1             0.402573    [1[8[6]]]                                                   
  H          -2.657348            -5.959694            -3.101321            1             0.031932    [1[6[8][1][1]]]                                             
  H          -1.519630            -5.902938            -4.379619            1             0.031932    [1[6[8][1][1]]]                                             
  H          -2.561372            -4.506593            -4.167548            1             0.031932    [1[6[8][1][1]]]                                             
