12

  C           2.644582            -4.496149             4.921701            0             0.099454    [6[8[1]][1][1][1]]                                          
  O           1.571882            -5.465876             5.016327            0            -0.597823    [8[6[1][1][1]][1]]                                          
  H           0.734321            -5.043278             5.354497            0             0.402573    [1[8[6]]]                                                   
  H           3.257729            -4.554362             5.857195            0             0.031932    [1[6[8][1][1]]]                                             
  H           3.420873            -4.747145             4.172869            0             0.031932    [1[6[8][1][1]]]                                             
  H           2.283139            -3.498105             4.678804            0             0.031932    [1[6[8][1][1]]]                                             
  C           5.737814            -6.792202             4.012589            1             0.099454    [6[8[1]][1][1][1]]                                          
  O           4.642197            -7.192453             3.223775            1            -0.597823    [8[6[1][1][1]][1]]                                          
  H           3.849765            -6.864474             3.676815            1             0.402573    [1[8[6]]]                                                   
  H           6.603623            -7.244640             3.633068            1             0.031932    [1[6[8][1][1]]]                                             
  H           5.796332            -5.719068             4.113003            1             0.031932    [1[6[8][1][1]]]                                             
  H           5.644942            -7.132266             5.028861            1             0.031932    [1[6[8][1][1]]]                                             
