12

  C           8.629797             8.547878             8.806274            0             0.099454    [6[8[1]][1][1][1]]                                          
  O           8.727650             7.489372             9.777322            0            -0.597823    [8[6[1][1][1]][1]]                                          
  H           8.906374             7.894992             10.650402           0             0.402573    [1[8[6]]]                                                   
  H           9.165527             9.433401             9.047837            0             0.031932    [1[6[8][1][1]]]                                             
  H           8.882979             8.196418             7.782462            0             0.031932    [1[6[8][1][1]]]                                             
  H           7.598564             8.894795             8.815134            0             0.031932    [1[6[8][1][1]]]                                             
  C           4.463888             10.329483            8.452455            1             0.099454    [6[8[1]][1][1][1]]                                          
  O           5.053410             11.626280            8.445353            1            -0.597823    [8[6[1][1][1]][1]]                                          
  H           5.107064             11.999492            9.351809            1             0.402573    [1[8[6]]]                                                   
  H           3.465351             10.341592            8.955897            1             0.031932    [1[6[8][1][1]]]                                             
  H           4.478914             10.000706            7.463618            1             0.031932    [1[6[8][1][1]]]                                             
  H           5.187701             9.732460             8.978266            1             0.031932    [1[6[8][1][1]]]                                             
