12

  C          -4.752948             5.591868            -4.181413            0             0.099454    [6[8[1]][1][1][1]]                                          
  O          -5.139830             4.777113            -3.073725            0            -0.597823    [8[6[1][1][1]][1]]                                          
  H          -5.629639             5.350930            -2.456730            0             0.402573    [1[8[6]]]                                                   
  H          -5.593928             6.236357            -4.410818            0             0.031932    [1[6[8][1][1]]]                                             
  H          -3.803955             6.184682            -4.018049            0             0.031932    [1[6[8][1][1]]]                                             
  H          -4.579629             4.990443            -5.082851            0             0.031932    [1[6[8][1][1]]]                                             
  C          -7.108575             6.913722            -0.857616            1             0.099454    [6[8[1]][1][1][1]]                                          
  O          -5.910933             6.151993            -0.758104            1            -0.597823    [8[6[1][1][1]][1]]                                          
  H          -6.108608             5.514156             0.021846            1             0.402573    [1[8[6]]]                                                   
  H          -8.052278             6.348833            -0.737678            1             0.031932    [1[6[8][1][1]]]                                             
  H          -7.212517             7.592448            -0.076732            1             0.031932    [1[6[8][1][1]]]                                             
  H          -7.252339             7.360240            -1.857203            1             0.031932    [1[6[8][1][1]]]                                             
