12

  C          -9.536829            -6.807103            -2.749987            0             0.099454    [6[8[1]][1][1][1]]                                          
  O          -9.730653            -8.108969            -2.178434            0            -0.597823    [8[6[1][1][1]][1]]                                          
  H          -9.985388            -8.595777            -2.975027            0             0.402573    [1[8[6]]]                                                   
  H          -8.560958            -6.738593            -3.254585            0             0.031932    [1[6[8][1][1]]]                                             
  H          -10.387473           -6.501655            -3.374744            0             0.031932    [1[6[8][1][1]]]                                             
  H          -9.584870            -6.065542            -2.040604            0             0.031932    [1[6[8][1][1]]]                                             
  C          -7.847015            -10.797170           -4.774399            1             0.099454    [6[8[1]][1][1][1]]                                          
  O          -9.056352            -10.963265           -4.130736            1            -0.597823    [8[6[1][1][1]][1]]                                          
  H          -9.679498            -10.343751           -4.391485            1             0.402573    [1[8[6]]]                                                   
  H          -8.014355            -10.073135           -5.561590            1             0.031932    [1[6[8][1][1]]]                                             
  H          -7.090545            -10.423001           -4.066921            1             0.031932    [1[6[8][1][1]]]                                             
  H          -7.466017            -11.744374           -5.103162            1             0.031932    [1[6[8][1][1]]]                                             
