12

  C           0.660958             5.234501             6.568248            0             0.099454    [6[8[1]][1][1][1]]                                          
  O           1.793988             4.917370             7.403906            0            -0.597823    [8[6[1][1][1]][1]]                                          
  H           1.654328             3.934204             7.551554            0             0.402573    [1[8[6]]]                                                   
  H           0.805839             4.909714             5.553898            0             0.031932    [1[6[8][1][1]]]                                             
  H          -0.204570             4.628391             6.807331            0             0.031932    [1[6[8][1][1]]]                                             
  H           0.475641             6.293078             6.607980            0             0.031932    [1[6[8][1][1]]]                                             
  C          -0.719860             4.547665             9.983146            1             0.099454    [6[8[1]][1][1][1]]                                          
  O          -1.560078             5.348940             10.767808           1            -0.597823    [8[6[1][1][1]][1]]                                          
  H          -1.813774             6.001188             10.121282           1             0.402573    [1[8[6]]]                                                   
  H          -0.522874             4.892050             8.976834            1             0.031932    [1[6[8][1][1]]]                                             
  H           0.290810             4.515127             10.514305           1             0.031932    [1[6[8][1][1]]]                                             
  H          -1.153318             3.589730             9.933368            1             0.031932    [1[6[8][1][1]]]                                             
