12

  C          -3.823675             4.289136            -8.766144            0             0.099454    [6[8[1]][1][1][1]]                                          
  O          -4.377185             5.267155            -9.559197            0            -0.597823    [8[6[1][1][1]][1]]                                          
  H          -4.576584             6.000657            -8.961619            0             0.402573    [1[8[6]]]                                                   
  H          -2.831440             4.544331            -8.466993            0             0.031932    [1[6[8][1][1]]]                                             
  H          -4.245802             4.234392            -7.782589            0             0.031932    [1[6[8][1][1]]]                                             
  H          -3.906820             3.308003            -9.284825            0             0.031932    [1[6[8][1][1]]]                                             
  C          -6.884273             2.759162            -10.565749           1             0.099454    [6[8[1]][1][1][1]]                                          
  O          -7.233005             2.340191            -11.865965           1            -0.597823    [8[6[1][1][1]][1]]                                          
  H          -7.718869             3.042188            -12.262749           1             0.402573    [1[8[6]]]                                                   
  H          -6.190884             1.959772            -10.206315           1             0.031932    [1[6[8][1][1]]]                                             
  H          -6.272609             3.739494            -10.517569           1             0.031932    [1[6[8][1][1]]]                                             
  H          -7.605629             2.739941            -9.851805            1             0.031932    [1[6[8][1][1]]]                                             
