12

  C           10.141218           -4.670858            -0.826136            0             0.099454    [6[8[1]][1][1][1]]                                          
  O           9.963728            -3.332241            -0.613879            0            -0.597823    [8[6[1][1][1]][1]]                                          
  H           10.744658           -3.148241            -0.039724            0             0.402573    [1[8[6]]]                                                   
  H           10.405545           -5.269680             0.082664            0             0.031932    [1[6[8][1][1]]]                                             
  H           9.238099            -5.122347            -1.263982            0             0.031932    [1[6[8][1][1]]]                                             
  H           10.917957           -4.849520            -1.561856            0             0.031932    [1[6[8][1][1]]]                                             
  C           10.563372           -5.654747             3.505832            1             0.099454    [6[8[1]][1][1][1]]                                          
  O           11.111717           -4.404740             3.040707            1            -0.597823    [8[6[1][1][1]][1]]                                          
  H           10.361361           -3.905842             2.783787            1             0.402573    [1[8[6]]]                                                   
  H           9.791847            -5.538091             4.269721            1             0.031932    [1[6[8][1][1]]]                                             
  H           10.130539           -6.235199             2.589249            1             0.031932    [1[6[8][1][1]]]                                             
  H           11.338688           -6.200359             3.990725            1             0.031932    [1[6[8][1][1]]]                                             
