12

  C           7.637502            -1.565497             0.430449            0             0.099454    [6[8[1]][1][1][1]]                                          
  O           6.279459            -1.591730             0.075538            0            -0.597823    [8[6[1][1][1]][1]]                                          
  H           6.138315            -2.503580             0.236057            0             0.402573    [1[8[6]]]                                                   
  H           8.043561            -0.510717             0.303914            0             0.031932    [1[6[8][1][1]]]                                             
  H           7.798157            -1.853950             1.427963            0             0.031932    [1[6[8][1][1]]]                                             
  H           8.171181            -2.284390            -0.145285            0             0.031932    [1[6[8][1][1]]]                                             
  C           6.349488             1.958305            -0.293641            1             0.099454    [6[8[1]][1][1][1]]                                          
  O           6.402245             1.534939            -1.668295            1            -0.597823    [8[6[1][1][1]][1]]                                          
  H           5.500103             1.659178            -2.082639            1             0.402573    [1[8[6]]]                                                   
  H           7.230434             2.498772            -0.038362            1             0.031932    [1[6[8][1][1]]]                                             
  H           5.513317             2.605014            -0.130240            1             0.031932    [1[6[8][1][1]]]                                             
  H           6.275680             1.143591             0.346185            1             0.031932    [1[6[8][1][1]]]                                             
