12

  C           3.918612            -5.045741             2.896027            0             0.099454    [6[8[1]][1][1][1]]                                          
  O           4.275113            -3.748419             2.773380            0            -0.597823    [8[6[1][1][1]][1]]                                          
  H           5.177996            -3.619790             2.820687            0             0.402573    [1[8[6]]]                                                   
  H           3.911424            -5.560728             1.980114            0             0.031932    [1[6[8][1][1]]]                                             
  H           4.669848            -5.508734             3.468600            0             0.031932    [1[6[8][1][1]]]                                             
  H           2.869578            -5.280809             3.312576            0             0.031932    [1[6[8][1][1]]]                                             
  C           1.713433            -5.196340             6.770740            1             0.099454    [6[8[1]][1][1][1]]                                          
  O           1.791775            -5.028510             8.127956            1            -0.597823    [8[6[1][1][1]][1]]                                          
  H           1.810049            -5.951920             8.498394            1             0.402573    [1[8[6]]]                                                   
  H           1.500596            -4.238577             6.340873            1             0.031932    [1[6[8][1][1]]]                                             
  H           2.666201            -5.539737             6.312505            1             0.031932    [1[6[8][1][1]]]                                             
  H           0.880092            -5.841664             6.551515            1             0.031932    [1[6[8][1][1]]]                                             
