12

  C           0.886549             0.822237             10.406532           0             0.099454    [6[8[1]][1][1][1]]                                          
  O          -0.359793             0.971877             9.692236            0            -0.597823    [8[6[1][1][1]][1]]                                          
  H          -0.550626             0.048280             9.716713            0             0.402573    [1[8[6]]]                                                   
  H           1.518922             1.710716             10.116938           0             0.031932    [1[6[8][1][1]]]                                             
  H           0.664286             0.723875             11.450918           0             0.031932    [1[6[8][1][1]]]                                             
  H           1.397309            -0.146132             10.165140           0             0.031932    [1[6[8][1][1]]]                                             
  C          -2.842685             3.477370             9.832134            1             0.099454    [6[8[1]][1][1][1]]                                          
  O          -2.659729             4.454011             8.772866            1            -0.597823    [8[6[1][1][1]][1]]                                          
  H          -3.537312             4.885008             8.687711            1             0.402573    [1[8[6]]]                                                   
  H          -3.533470             2.727091             9.585934            1             0.031932    [1[6[8][1][1]]]                                             
  H          -1.929909             3.003346             10.104780           1             0.031932    [1[6[8][1][1]]]                                             
  H          -3.244043             4.038388             10.664281           1             0.031932    [1[6[8][1][1]]]                                             
