12

  C          -9.116109             5.828608            -3.149760            0             0.099454    [6[8[1]][1][1][1]]                                          
  O          -8.666366             7.180685            -3.469790            0            -0.597823    [8[6[1][1][1]][1]]                                          
  H          -8.814491             7.394887            -4.363041            0             0.402573    [1[8[6]]]                                                   
  H          -9.459913             5.864401            -2.148955            0             0.031932    [1[6[8][1][1]]]                                             
  H          -9.944737             5.470337            -3.807818            0             0.031932    [1[6[8][1][1]]]                                             
  H          -8.309017             5.140862            -3.188582            0             0.031932    [1[6[8][1][1]]]                                             
  C          -10.712358            9.250618            -5.767427            1             0.099454    [6[8[1]][1][1][1]]                                          
  O          -9.897446             10.368111           -5.606062            1            -0.597823    [8[6[1][1][1]][1]]                                          
  H          -9.531624             10.441435           -4.709248            1             0.402573    [1[8[6]]]                                                   
  H          -10.129557            8.401606            -5.946729            1             0.031932    [1[6[8][1][1]]]                                             
  H          -11.345808            8.915934            -4.832271            1             0.031932    [1[6[8][1][1]]]                                             
  H          -11.364078            9.504002            -6.655800            1             0.031932    [1[6[8][1][1]]]                                             
