12

  C          -1.936839            -7.101095            -2.876770            0             0.099454    [6[8[1]][1][1][1]]                                          
  O          -3.061484            -6.946725            -2.043370            0            -0.597823    [8[6[1][1][1]][1]]                                          
  H          -3.335684            -6.055807            -2.122500            0             0.402573    [1[8[6]]]                                                   
  H          -1.004453            -6.991422            -2.356135            0             0.031932    [1[6[8][1][1]]]                                             
  H          -1.884352            -8.095574            -3.432958            0             0.031932    [1[6[8][1][1]]]                                             
  H          -1.945391            -6.367581            -3.715468            0             0.031932    [1[6[8][1][1]]]                                             
  C          -3.724706            -3.539969            -0.684343            1             0.099454    [6[8[1]][1][1][1]]                                          
  O          -4.811907            -3.867002            -1.552285            1            -0.597823    [8[6[1][1][1]][1]]                                          
  H          -5.140295            -3.032049            -1.928228            1             0.402573    [1[8[6]]]                                                   
  H          -3.151461            -4.402956            -0.364138            1             0.031932    [1[6[8][1][1]]]                                             
  H          -3.067801            -2.758398            -1.100880            1             0.031932    [1[6[8][1][1]]]                                             
  H          -4.061478            -3.141803             0.297262            1             0.031932    [1[6[8][1][1]]]                                             
