12

  C           2.238468            -1.442492            -1.376394            0             0.099454    [6[8[1]][1][1][1]]                                          
  O           1.121689            -1.733540            -0.514272            0            -0.597823    [8[6[1][1][1]][1]]                                          
  H           1.431541            -2.499082            -0.058163            0             0.402573    [1[8[6]]]                                                   
  H           3.190386            -1.760322            -0.835746            0             0.031932    [1[6[8][1][1]]]                                             
  H           2.025457            -1.974779            -2.354060            0             0.031932    [1[6[8][1][1]]]                                             
  H           2.293692            -0.377440            -1.575006            0             0.031932    [1[6[8][1][1]]]                                             
  C           0.922069             2.397543            -2.403654            1             0.099454    [6[8[1]][1][1][1]]                                          
  O           1.090850             1.893788            -3.723139            1            -0.597823    [8[6[1][1][1]][1]]                                          
  H           2.030726             1.818473            -3.731177            1             0.402573    [1[8[6]]]                                                   
  H          -0.032940             3.018168            -2.168044            1             0.031932    [1[6[8][1][1]]]                                             
  H           1.074150             1.541091            -1.683846            1             0.031932    [1[6[8][1][1]]]                                             
  H           1.780223             3.123276            -2.281301            1             0.031932    [1[6[8][1][1]]]                                             
