12

  C           7.166154             11.280670            5.286611            0             0.099454    [6[8[1]][1][1][1]]                                          
  O           8.375598             10.687281            4.811101            0            -0.597823    [8[6[1][1][1]][1]]                                          
  H           8.327499             10.761921            3.852238            0             0.402573    [1[8[6]]]                                                   
  H           6.538571             10.544897            5.912698            0             0.031932    [1[6[8][1][1]]]                                             
  H           7.411956             12.162899            5.774472            0             0.031932    [1[6[8][1][1]]]                                             
  H           6.515775             11.474074            4.435100            0             0.031932    [1[6[8][1][1]]]                                             
  C           8.939562             9.765854             8.669209            1             0.099454    [6[8[1]][1][1][1]]                                          
  O           9.934909             10.294041            7.794602            1            -0.597823    [8[6[1][1][1]][1]]                                          
  H           9.713646             9.939190             6.879218            1             0.402573    [1[8[6]]]                                                   
  H           9.392743             8.919814             9.233452            1             0.031932    [1[6[8][1][1]]]                                             
  H           8.796015             10.433326            9.480259            1             0.031932    [1[6[8][1][1]]]                                             
  H           7.908909             9.606891             8.272929            1             0.031932    [1[6[8][1][1]]]                                             
