12

  C           9.668153            -8.802298             3.443174            0             0.099454    [6[8[1]][1][1][1]]                                          
  O           9.283030            -9.279826             2.182614            0            -0.597823    [8[6[1][1][1]][1]]                                          
  H           8.535800            -9.932465             2.235001            0             0.402573    [1[8[6]]]                                                   
  H           10.301862           -9.574787             3.917111            0             0.031932    [1[6[8][1][1]]]                                             
  H           10.289359           -7.879110             3.349851            0             0.031932    [1[6[8][1][1]]]                                             
  H           8.819729            -8.629750             4.115209            0             0.031932    [1[6[8][1][1]]]                                             
  C           5.206334            -9.057863             6.597827            1             0.099454    [6[8[1]][1][1][1]]                                          
  O           5.847438            -8.835371             5.336983            1            -0.597823    [8[6[1][1][1]][1]]                                          
  H           5.164536            -8.989231             4.744363            1             0.402573    [1[8[6]]]                                                   
  H           5.910274            -9.233634             7.412780            1             0.031932    [1[6[8][1][1]]]                                             
  H           4.588259            -8.188817             6.926912            1             0.031932    [1[6[8][1][1]]]                                             
  H           4.477473            -9.918150             6.582761            1             0.031932    [1[6[8][1][1]]]                                             
