6
Coordinates from ORCA-job 5_geo_opt
  C   3.01136193658449     -1.18092874774494      0.59852383023237
  O   4.39469790672214     -1.12803202328817      0.87428578110795
  H   4.77216902501783     -0.37898771168644      0.41248035013526
  H   2.80644959552712     -1.31897225008610     -0.46931748861133
  H   2.61153051131365     -2.04025293149554      1.13587166470050
  H   2.48479102483478     -0.28451633569881      0.94565586243525
