12

  C          -3.272401             6.414772             7.903279            0             0.099454    [6[8[1]][1][1][1]]                                          
  O          -2.221952             7.192676             8.481812            0            -0.597823    [8[6[1][1][1]][1]]                                          
  H          -2.096548             8.004167             7.918444            0             0.402573    [1[8[6]]]                                                   
  H          -3.352770             5.419782             8.481370            0             0.031932    [1[6[8][1][1]]]                                             
  H          -4.210993             6.998517             8.036973            0             0.031932    [1[6[8][1][1]]]                                             
  H          -3.129233             6.191496             6.820200            0             0.031932    [1[6[8][1][1]]]                                             
  C          -2.317205             8.892948             11.292753           1             0.099454    [6[8[1]][1][1][1]]                                          
  O          -3.647134             8.711647             10.800370           1            -0.597823    [8[6[1][1][1]][1]]                                          
  H          -3.560660             8.821451             9.892221            1             0.402573    [1[8[6]]]                                                   
  H          -2.353586             9.104131             12.371504           1             0.031932    [1[6[8][1][1]]]                                             
  H          -1.625960             8.131129             10.992430           1             0.031932    [1[6[8][1][1]]]                                             
  H          -1.778977             9.724011             10.888744           1             0.031932    [1[6[8][1][1]]]                                             
