12

  C           8.410197             3.010015            -0.062294            0             0.099454    [6[8[1]][1][1][1]]                                          
  O           8.200692             3.657938            -1.307122            0            -0.597823    [8[6[1][1][1]][1]]                                          
  H           9.016419             3.833738            -1.740553            0             0.402573    [1[8[6]]]                                                   
  H           7.517326             2.979493             0.495077            0             0.031932    [1[6[8][1][1]]]                                             
  H           8.723145             1.926999            -0.151185            0             0.031932    [1[6[8][1][1]]]                                             
  H           9.352263             3.358656             0.548165            0             0.031932    [1[6[8][1][1]]]                                             
  C           7.841369             1.138215            -3.199802            1             0.099454    [6[8[1]][1][1][1]]                                          
  O           6.875723             0.807199            -2.276302            1            -0.597823    [8[6[1][1][1]][1]]                                          
  H           7.102792             0.095378            -1.712923            1             0.402573    [1[8[6]]]                                                   
  H           8.817140             1.133840            -2.719237            1             0.031932    [1[6[8][1][1]]]                                             
  H           7.927319             0.388503            -4.027630            1             0.031932    [1[6[8][1][1]]]                                             
  H           7.683703             2.169119            -3.624330            1             0.031932    [1[6[8][1][1]]]                                             
