12

  C          -6.504516            -1.500290            -8.431497            0             0.099454    [6[8[1]][1][1][1]]                                          
  O          -6.338600            -0.425602            -9.371969            0            -0.597823    [8[6[1][1][1]][1]]                                          
  H          -7.225021            -0.135700            -9.610803            0             0.402573    [1[8[6]]]                                                   
  H          -7.421601            -1.334292            -7.898962            0             0.031932    [1[6[8][1][1]]]                                             
  H          -6.661592            -2.478114            -8.949301            0             0.031932    [1[6[8][1][1]]]                                             
  H          -5.704916            -1.581016            -7.692120            0             0.031932    [1[6[8][1][1]]]                                             
  C          -3.792512             1.488583            -7.452187            1             0.099454    [6[8[1]][1][1][1]]                                          
  O          -4.759811             2.049113            -8.376682            1            -0.597823    [8[6[1][1][1]][1]]                                          
  H          -4.986571             1.271547            -8.877913            1             0.402573    [1[8[6]]]                                                   
  H          -4.248719             0.778068            -6.799371            1             0.031932    [1[6[8][1][1]]]                                             
  H          -2.845662             1.009647            -7.852309            1             0.031932    [1[6[8][1][1]]]                                             
  H          -3.524249             2.327959            -6.747354            1             0.031932    [1[6[8][1][1]]]                                             
