6

  C           11.850537            8.407869            -4.919315            0             0.089063    [6[8[1]][1][1][1]]                                          
  O           12.344051            9.709187            -5.195754            0            -0.604789    [8[6[1][1][1]][1]]                                          
  H           11.679485            10.260093           -5.476464            0             0.406250    [1[8[6]]]                                                   
  H           12.590602            7.649585            -5.164954            0             0.036492    [1[6[8][1][1]]]                                             
  H           11.502005            8.261121            -3.944394            0             0.036492    [1[6[8][1][1]]]                                             
  H           11.017990            8.175174            -5.496754            0             0.036492    [1[6[8][1][1]]]                                             
