12

  C           6.381632            -1.870875             3.659416            0             0.099454    [6[8[1]][1][1][1]]                                          
  O           6.865294            -2.428046             2.462627            0            -0.597823    [8[6[1][1][1]][1]]                                          
  H           7.177478            -3.339419             2.607261            0             0.402573    [1[8[6]]]                                                   
  H           5.847585            -2.577557             4.305369            0             0.031932    [1[6[8][1][1]]]                                             
  H           7.275320            -1.535234             4.225810            0             0.031932    [1[6[8][1][1]]]                                             
  H           5.685898            -1.053315             3.452593            0             0.031932    [1[6[8][1][1]]]                                             
  C           5.268727            -3.063159             7.449425            1             0.099454    [6[8[1]][1][1][1]]                                          
  O           6.666113            -3.106608             7.276511            1            -0.597823    [8[6[1][1][1]][1]]                                          
  H           6.971623            -4.013655             7.312842            1             0.402573    [1[8[6]]]                                                   
  H           4.745337            -3.110422             6.493935            1             0.031932    [1[6[8][1][1]]]                                             
  H           4.932925            -3.893901             8.091872            1             0.031932    [1[6[8][1][1]]]                                             
  H           5.027289            -2.137624             7.948754            1             0.031932    [1[6[8][1][1]]]                                             
