12

  C          -5.553447            -1.981616            -4.515770            0             0.099454    [6[8[1]][1][1][1]]                                          
  O          -6.053582            -1.815600            -5.802434            0            -0.597823    [8[6[1][1][1]][1]]                                          
  H          -6.670493            -2.484740            -6.045409            0             0.402573    [1[8[6]]]                                                   
  H          -4.929881            -1.186056            -4.211347            0             0.031932    [1[6[8][1][1]]]                                             
  H          -6.329280            -2.029363            -3.850187            0             0.031932    [1[6[8][1][1]]]                                             
  H          -4.934412            -2.900721            -4.445640            0             0.031932    [1[6[8][1][1]]]                                             
  C          -7.995814            -5.051933            -4.817911            1             0.099454    [6[8[1]][1][1][1]]                                          
  O          -7.723852            -4.250924            -5.990596            1            -0.597823    [8[6[1][1][1]][1]]                                          
  H          -8.414649            -4.447234            -6.684863            1             0.402573    [1[8[6]]]                                                   
  H          -8.909583            -4.828857            -4.251161            1             0.031932    [1[6[8][1][1]]]                                             
  H          -8.165103            -6.058626            -5.253838            1             0.031932    [1[6[8][1][1]]]                                             
  H          -7.193328            -5.017063            -4.080825            1             0.031932    [1[6[8][1][1]]]                                             
