6

  C          -1.870790             10.884009            9.658639            0             0.089063    [6[8[1]][1][1][1]]                                          
  O          -2.269664             9.749495             8.927611            0            -0.604789    [8[6[1][1][1]][1]]                                          
  H          -1.630379             9.557993             8.304267            0             0.406250    [1[8[6]]]                                                   
  H          -0.798991             11.033659            9.602940            0             0.036492    [1[6[8][1][1]]]                                             
  H          -2.433205             11.757506            9.301564            0             0.036492    [1[6[8][1][1]]]                                             
  H          -2.159828             10.762534            10.707488           0             0.036492    [1[6[8][1][1]]]                                             
