12

  C           5.434958             2.875792            -9.733265            0             0.099454    [6[8[1]][1][1][1]]                                          
  O           6.885886             2.877586            -9.509406            0            -0.597823    [8[6[1][1][1]][1]]                                          
  H           7.289825             2.013666            -9.590393            0             0.402573    [1[8[6]]]                                                   
  H           5.137906             3.799958            -10.234967           0             0.031932    [1[6[8][1][1]]]                                             
  H           5.202899             1.890700            -10.161595           0             0.031932    [1[6[8][1][1]]]                                             
  H           4.848795             2.960356            -8.769228            0             0.031932    [1[6[8][1][1]]]                                             
  C           10.033848            5.656883            -8.659174            1             0.099454    [6[8[1]][1][1][1]]                                          
  O           9.555849             4.525149            -9.380176            1            -0.597823    [8[6[1][1][1]][1]]                                          
  H           8.724086             4.300630            -9.029383            1             0.402573    [1[8[6]]]                                                   
  H           10.140352            5.486081            -7.609466            1             0.031932    [1[6[8][1][1]]]                                             
  H           10.975797            6.002317            -9.039949            1             0.031932    [1[6[8][1][1]]]                                             
  H           9.317366             6.460049            -8.691279            1             0.031932    [1[6[8][1][1]]]                                             
