12

  C          -3.148170             5.526536             0.250592            0             0.099454    [6[8[1]][1][1][1]]                                          
  O          -4.122243             6.461500             0.653780            0            -0.597823    [8[6[1][1][1]][1]]                                          
  H          -4.972779             6.142392             0.328687            0             0.402573    [1[8[6]]]                                                   
  H          -2.964292             5.774731            -0.804132            0             0.031932    [1[6[8][1][1]]]                                             
  H          -2.171916             5.713092             0.804986            0             0.031932    [1[6[8][1][1]]]                                             
  H          -3.408570             4.525718             0.398298            0             0.031932    [1[6[8][1][1]]]                                             
  C          -7.362782             6.392833            -0.031246            1             0.099454    [6[8[1]][1][1][1]]                                          
  O          -6.746706             5.358698             0.595294            1            -0.597823    [8[6[1][1][1]][1]]                                          
  H          -7.008309             4.498787             0.148125            1             0.402573    [1[8[6]]]                                                   
  H          -7.361403             7.336571             0.467680            1             0.031932    [1[6[8][1][1]]]                                             
  H          -7.100800             6.503015            -1.023257            1             0.031932    [1[6[8][1][1]]]                                             
  H          -8.394243             6.060086            -0.106421            1             0.031932    [1[6[8][1][1]]]                                             
