12

  C          -1.552654            -0.347999             4.263472            0             0.099454    [6[8[1]][1][1][1]]                                          
  O          -0.675985            -0.786314             3.238730            0            -0.597823    [8[6[1][1][1]][1]]                                          
  H          -1.311521            -0.903148             2.507645            0             0.402573    [1[8[6]]]                                                   
  H          -1.893925             0.644904             3.934240            0             0.031932    [1[6[8][1][1]]]                                             
  H          -2.420135            -0.936720             4.503697            0             0.031932    [1[6[8][1][1]]]                                             
  H          -1.047543            -0.169033             5.200596            0             0.031932    [1[6[8][1][1]]]                                             
  C          -3.794272             2.293692             8.882736            1             0.099454    [6[8[1]][1][1][1]]                                          
  O          -4.806415             2.716572             7.958103            1            -0.597823    [8[6[1][1][1]][1]]                                          
  H          -5.271343             1.986556             7.505574            1             0.402573    [1[8[6]]]                                                   
  H          -3.395406             1.318723             8.520923            1             0.031932    [1[6[8][1][1]]]                                             
  H          -3.000333             2.959490             8.972679            1             0.031932    [1[6[8][1][1]]]                                             
  H          -4.124509             2.106691             9.882683            1             0.031932    [1[6[8][1][1]]]                                             
