12

  C          -2.553089            -9.341690             7.829840            0             0.099454    [6[8[1]][1][1][1]]                                          
  O          -3.202982            -9.262673             6.528423            0            -0.597823    [8[6[1][1][1]][1]]                                          
  H          -3.995979            -9.807772             6.501171            0             0.402573    [1[8[6]]]                                                   
  H          -1.675079            -8.720392             7.907150            0             0.031932    [1[6[8][1][1]]]                                             
  H          -3.152298            -8.937749             8.646217            0             0.031932    [1[6[8][1][1]]]                                             
  H          -2.217675            -10.345372            8.116701            0             0.031932    [1[6[8][1][1]]]                                             
  C          -5.018804            -11.394211            4.335101            1             0.099454    [6[8[1]][1][1][1]]                                          
  O          -4.125954            -10.858784            5.383765            1            -0.597823    [8[6[1][1][1]][1]]                                          
  H          -3.702437            -10.083851            5.035189            1             0.402573    [1[8[6]]]                                                   
  H          -5.527582            -10.505104            3.828122            1             0.031932    [1[6[8][1][1]]]                                             
  H          -4.441818            -11.900742            3.519998            1             0.031932    [1[6[8][1][1]]]                                             
  H          -5.719270            -12.198359            4.600835            1             0.031932    [1[6[8][1][1]]]                                             
