12

  C          -3.541612             8.218738            -6.097579            0             0.099454    [6[8[1]][1][1][1]]                                          
  O          -2.500026             7.841059            -5.165467            0            -0.597823    [8[6[1][1][1]][1]]                                          
  H          -2.808424             8.091062            -4.276652            0             0.402573    [1[8[6]]]                                                   
  H          -4.504519             8.175344            -5.636522            0             0.031932    [1[6[8][1][1]]]                                             
  H          -3.270904             9.255707            -6.480989            0             0.031932    [1[6[8][1][1]]]                                             
  H          -3.586497             7.616042            -6.948879            0             0.031932    [1[6[8][1][1]]]                                             
  C           0.659082             8.615269            -3.643497            1             0.099454    [6[8[1]][1][1][1]]                                          
  O           0.571755             9.841283            -3.042450            1            -0.597823    [8[6[1][1][1]][1]]                                          
  H           0.633439             10.539445           -3.712564            1             0.402573    [1[8[6]]]                                                   
  H           1.490287             8.549697            -4.355124            1             0.031932    [1[6[8][1][1]]]                                             
  H           0.762765             7.880298            -2.852222            1             0.031932    [1[6[8][1][1]]]                                             
  H          -0.254403             8.351689            -4.285406            1             0.031932    [1[6[8][1][1]]]                                             
