12

  C          -5.106868             5.364977             4.076705            0             0.099454    [6[8[1]][1][1][1]]                                          
  O          -4.860362             6.614453             3.509791            0            -0.597823    [8[6[1][1][1]][1]]                                          
  H          -4.817998             6.497377             2.536860            0             0.402573    [1[8[6]]]                                                   
  H          -6.164157             5.347365             4.411321            0             0.031932    [1[6[8][1][1]]]                                             
  H          -4.952286             4.468046             3.431176            0             0.031932    [1[6[8][1][1]]]                                             
  H          -4.499261             5.272901             4.938925            0             0.031932    [1[6[8][1][1]]]                                             
  C          -1.171793             5.934240             5.579448            1             0.099454    [6[8[1]][1][1][1]]                                          
  O          -0.309131             4.850648             5.364397            1            -0.597823    [8[6[1][1][1]][1]]                                          
  H          -0.566829             4.437277             4.482448            1             0.402573    [1[8[6]]]                                                   
  H          -1.154150             6.680770             4.732149            1             0.031932    [1[6[8][1][1]]]                                             
  H          -2.241465             5.558941             5.543396            1             0.031932    [1[6[8][1][1]]]                                             
  H          -0.988504             6.613440             6.458835            1             0.031932    [1[6[8][1][1]]]                                             
