12

  C          -8.330021            -3.936850             9.780098            0             0.099454    [6[8[1]][1][1][1]]                                          
  O          -7.082873            -4.366825             9.301597            0            -0.597823    [8[6[1][1][1]][1]]                                          
  H          -6.330123            -4.091510             9.880843            0             0.402573    [1[8[6]]]                                                   
  H          -9.113728            -4.603709             9.450616            0             0.031932    [1[6[8][1][1]]]                                             
  H          -8.289771            -4.009567             10.862791           0             0.031932    [1[6[8][1][1]]]                                             
  H          -8.578552            -2.883557             9.468591            0             0.031932    [1[6[8][1][1]]]                                             
  C          -5.535434            -7.265024             10.706028           1             0.099454    [6[8[1]][1][1][1]]                                          
  O          -4.300322            -6.619161             10.970741           1            -0.597823    [8[6[1][1][1]][1]]                                          
  H          -3.704640            -7.276469             10.740639           1             0.402573    [1[8[6]]]                                                   
  H          -5.820015            -7.945253             11.487688           1             0.031932    [1[6[8][1][1]]]                                             
  H          -6.413249            -6.635410             10.581916           1             0.031932    [1[6[8][1][1]]]                                             
  H          -5.440893            -7.870168             9.772601            1             0.031932    [1[6[8][1][1]]]                                             
