12

  C           4.116040             3.646797             5.150770            0             0.099454    [6[8[1]][1][1][1]]                                          
  O           5.314399             3.405780             4.517782            0            -0.597823    [8[6[1][1][1]][1]]                                          
  H           5.522391             4.067591             3.865315            0             0.402573    [1[8[6]]]                                                   
  H           4.059715             4.503963             5.810762            0             0.031932    [1[6[8][1][1]]]                                             
  H           3.306977             3.937152             4.436309            0             0.031932    [1[6[8][1][1]]]                                             
  H           3.812589             2.736741             5.676938            0             0.031932    [1[6[8][1][1]]]                                             
  C           4.848953             1.340181             0.947350            1             0.099454    [6[8[1]][1][1][1]]                                          
  O           5.001859             0.304335             1.898292            1            -0.597823    [8[6[1][1][1]][1]]                                          
  H           4.510432             0.503316             2.714036            1             0.402573    [1[8[6]]]                                                   
  H           5.085861             2.371400             1.327019            1             0.031932    [1[6[8][1][1]]]                                             
  H           5.514428             1.175361             0.105309            1             0.031932    [1[6[8][1][1]]]                                             
  H           3.768077             1.411287             0.618758            1             0.031932    [1[6[8][1][1]]]                                             
