12

  C           10.841088           -7.127061            -6.891285            0             0.099454    [6[8[1]][1][1][1]]                                          
  O           10.495546           -7.092162            -5.484353            0            -0.597823    [8[6[1][1][1]][1]]                                          
  H           9.956987            -6.291068            -5.245316            0             0.402573    [1[8[6]]]                                                   
  H           9.927392            -6.872766            -7.502368            0             0.031932    [1[6[8][1][1]]]                                             
  H           11.640231           -6.359361            -7.120319            0             0.031932    [1[6[8][1][1]]]                                             
  H           11.277844           -8.122326            -7.267426            0             0.031932    [1[6[8][1][1]]]                                             
  C           5.199033            -9.097002            -3.574988            1             0.099454    [6[8[1]][1][1][1]]                                          
  O           6.451183            -8.695826            -4.091905            1            -0.597823    [8[6[1][1][1]][1]]                                          
  H           6.443825            -8.843585            -5.019329            1             0.402573    [1[8[6]]]                                                   
  H           5.190633            -9.018108            -2.425357            1             0.031932    [1[6[8][1][1]]]                                             
  H           4.430538            -8.410827            -3.947022            1             0.031932    [1[6[8][1][1]]]                                             
  H           4.918615            -10.093391           -3.951193            1             0.031932    [1[6[8][1][1]]]                                             
