12

  C           10.961346            2.850851            -5.350093            0             0.099454    [6[8[1]][1][1][1]]                                          
  O           9.971114             2.798636            -4.283877            0            -0.597823    [8[6[1][1][1]][1]]                                          
  H           9.843896             1.898025            -4.011744            0             0.402573    [1[8[6]]]                                                   
  H           11.948840            2.543303            -5.002153            0             0.031932    [1[6[8][1][1]]]                                             
  H           10.830491            2.248679            -6.269059            0             0.031932    [1[6[8][1][1]]]                                             
  H           11.163429            3.825260            -5.675786            0             0.031932    [1[6[8][1][1]]]                                             
  C           10.311949           -0.204251            -2.808328            1             0.099454    [6[8[1]][1][1][1]]                                          
  O           10.231334            1.100341            -2.321599            1            -0.597823    [8[6[1][1][1]][1]]                                          
  H           10.876962            1.230900            -1.592367            1             0.402573    [1[8[6]]]                                                   
  H           9.962635            -0.245599            -3.763337            1             0.031932    [1[6[8][1][1]]]                                             
  H           11.283199           -0.694497            -2.911589            1             0.031932    [1[6[8][1][1]]]                                             
  H           9.708854            -0.907636            -2.254651            1             0.031932    [1[6[8][1][1]]]                                             
