12

  C          -4.463582            -1.354472             0.559463            0             0.099454    [6[8[1]][1][1][1]]                                          
  O          -5.340438            -2.213762            -0.128602            0            -0.597823    [8[6[1][1][1]][1]]                                          
  H          -6.211150            -1.951602            -0.000589            0             0.402573    [1[8[6]]]                                                   
  H          -4.627158            -1.465617             1.596524            0             0.031932    [1[6[8][1][1]]]                                             
  H          -3.468846            -1.728514             0.454134            0             0.031932    [1[6[8][1][1]]]                                             
  H          -4.436178            -0.307758             0.291256            0             0.031932    [1[6[8][1][1]]]                                             
  C          -2.313152             2.209491             1.472491            1             0.099454    [6[8[1]][1][1][1]]                                          
  O          -3.409687             1.365567             1.882178            1            -0.597823    [8[6[1][1][1]][1]]                                          
  H          -3.929460             1.988193             2.385590            1             0.402573    [1[8[6]]]                                                   
  H          -1.861746             1.840108             0.494320            1             0.031932    [1[6[8][1][1]]]                                             
  H          -2.520141             3.299756             1.321185            1             0.031932    [1[6[8][1][1]]]                                             
  H          -1.539403             2.151524             2.219451            1             0.031932    [1[6[8][1][1]]]                                             
