12

  C           5.145212            -11.023255           -6.473144            0             0.099454    [6[8[1]][1][1][1]]                                          
  O           6.165765            -10.033122           -6.475074            0            -0.597823    [8[6[1][1][1]][1]]                                          
  H           6.160345            -9.606264            -7.317652            0             0.402573    [1[8[6]]]                                                   
  H           4.241159            -10.711664           -5.988630            0             0.031932    [1[6[8][1][1]]]                                             
  H           4.936577            -11.255154           -7.514384            0             0.031932    [1[6[8][1][1]]]                                             
  H           5.558417            -11.941200           -6.064285            0             0.031932    [1[6[8][1][1]]]                                             
  C           6.059093            -10.893009           -9.907102            1             0.099454    [6[8[1]][1][1][1]]                                          
  O           6.761896            -9.808815            -9.220556            1            -0.597823    [8[6[1][1][1]][1]]                                          
  H           7.703710            -10.106093           -8.997001            1             0.402573    [1[8[6]]]                                                   
  H           6.655688            -11.117009           -10.812321           1             0.031932    [1[6[8][1][1]]]                                             
  H           5.853971            -11.725111           -9.218009            1             0.031932    [1[6[8][1][1]]]                                             
  H           5.010903            -10.597532           -10.254226           1             0.031932    [1[6[8][1][1]]]                                             
