12

  C           0.029205            -3.305085             5.575801            0             0.099454    [6[8[1]][1][1][1]]                                          
  O          -1.152025            -2.596991             5.492510            0            -0.597823    [8[6[1][1][1]][1]]                                          
  H          -0.980307            -2.042697             4.669758            0             0.402573    [1[8[6]]]                                                   
  H           0.889800            -2.641096             5.935441            0             0.031932    [1[6[8][1][1]]]                                             
  H          -0.058726            -4.169142             6.203153            0             0.031932    [1[6[8][1][1]]]                                             
  H           0.260555            -3.587206             4.550461            0             0.031932    [1[6[8][1][1]]]                                             
  C           2.217427             1.697166             7.318958            1             0.099454    [6[8[1]][1][1][1]]                                          
  O           2.613277             1.466111             6.043018            1            -0.597823    [8[6[1][1][1]][1]]                                          
  H           3.481657             1.800172             5.873773            1             0.402573    [1[8[6]]]                                                   
  H           1.260983             2.194355             7.328991            1             0.031932    [1[6[8][1][1]]]                                             
  H           2.080021             0.874350             8.033211            1             0.031932    [1[6[8][1][1]]]                                             
  H           2.938580             2.440001             7.769617            1             0.031932    [1[6[8][1][1]]]                                             
