12

  C           0.666390            -0.715815            -0.420100            0             0.099454    [6[8[1]][1][1][1]]                                          
  O           1.567490             0.321839            -0.143165            0            -0.597823    [8[6[1][1][1]][1]]                                          
  H           1.326093             1.086254            -0.696441            0             0.402573    [1[8[6]]]                                                   
  H          -0.316124            -0.427597            -0.014911            0             0.031932    [1[6[8][1][1]]]                                             
  H           0.543968            -0.926248            -1.464179            0             0.031932    [1[6[8][1][1]]]                                             
  H           1.024687            -1.624058             0.019191            0             0.031932    [1[6[8][1][1]]]                                             
  C          -2.313152             2.209491             1.472491            1             0.099454    [6[8[1]][1][1][1]]                                          
  O          -3.409687             1.365567             1.882178            1            -0.597823    [8[6[1][1][1]][1]]                                          
  H          -3.929460             1.988193             2.385590            1             0.402573    [1[8[6]]]                                                   
  H          -1.861746             1.840108             0.494320            1             0.031932    [1[6[8][1][1]]]                                             
  H          -2.520141             3.299756             1.321185            1             0.031932    [1[6[8][1][1]]]                                             
  H          -1.539403             2.151524             2.219451            1             0.031932    [1[6[8][1][1]]]                                             
