12

  C           5.326910             4.806322            -3.533113            0             0.099454    [6[8[1]][1][1][1]]                                          
  O           6.034877             3.972360            -4.447765            0            -0.597823    [8[6[1][1][1]][1]]                                          
  H           6.237275             3.163824            -3.960999            0             0.402573    [1[8[6]]]                                                   
  H           6.014065             5.326131            -2.833834            0             0.031932    [1[6[8][1][1]]]                                             
  H           4.817935             5.581777            -4.157801            0             0.031932    [1[6[8][1][1]]]                                             
  H           4.623172             4.233674            -2.922331            0             0.031932    [1[6[8][1][1]]]                                             
  C           6.415215             7.720887            -0.515267            1             0.099454    [6[8[1]][1][1][1]]                                          
  O           6.960690             8.090175            -1.808112            1            -0.597823    [8[6[1][1][1]][1]]                                          
  H           7.891432             8.299231            -1.797860            1             0.402573    [1[8[6]]]                                                   
  H           5.298850             7.836669            -0.482054            1             0.031932    [1[6[8][1][1]]]                                             
  H           6.668831             6.667515            -0.324530            1             0.031932    [1[6[8][1][1]]]                                             
  H           6.810055             8.262270             0.330771            1             0.031932    [1[6[8][1][1]]]                                             
