12

  C          -5.982742            -6.095501             1.316982            0             0.099454    [6[8[1]][1][1][1]]                                          
  O          -6.760569            -4.916011             1.577320            0            -0.597823    [8[6[1][1][1]][1]]                                          
  H          -6.135223            -4.206989             1.780978            0             0.402573    [1[8[6]]]                                                   
  H          -5.438071            -6.346295             2.215708            0             0.031932    [1[6[8][1][1]]]                                             
  H          -6.528076            -6.986041             1.068226            0             0.031932    [1[6[8][1][1]]]                                             
  H          -5.230619            -5.928635             0.561390            0             0.031932    [1[6[8][1][1]]]                                             
  C          -10.197171           -6.054642             2.974912            1             0.099454    [6[8[1]][1][1][1]]                                          
  O          -8.844491            -5.867952             3.255921            1            -0.597823    [8[6[1][1][1]][1]]                                          
  H          -8.304808            -5.932936             2.427951            1             0.402573    [1[8[6]]]                                                   
  H          -10.937768           -5.699110             3.668362            1             0.031932    [1[6[8][1][1]]]                                             
  H          -10.469708           -5.594720             2.039846            1             0.031932    [1[6[8][1][1]]]                                             
  H          -10.309005           -7.149130             2.842359            1             0.031932    [1[6[8][1][1]]]                                             
