12

  C          -6.423069             5.566092             9.013381            0             0.099454    [6[8[1]][1][1][1]]                                          
  O          -6.490406             6.939785             8.703720            0            -0.597823    [8[6[1][1][1]][1]]                                          
  H          -5.816488             7.100692             8.090013            0             0.402573    [1[8[6]]]                                                   
  H          -7.316964             5.205827             9.520099            0             0.031932    [1[6[8][1][1]]]                                             
  H          -6.371598             4.942767             8.107187            0             0.031932    [1[6[8][1][1]]]                                             
  H          -5.565183             5.306817             9.669080            0             0.031932    [1[6[8][1][1]]]                                             
  C          -4.428457             9.457185             6.975211            1             0.099454    [6[8[1]][1][1][1]]                                          
  O          -3.977799             8.276667             7.423609            1            -0.597823    [8[6[1][1][1]][1]]                                          
  H          -3.298247             8.485323             8.074216            1             0.402573    [1[8[6]]]                                                   
  H          -3.876182             10.238919            7.490986            1             0.031932    [1[6[8][1][1]]]                                             
  H          -4.354874             9.603095             5.907255            1             0.031932    [1[6[8][1][1]]]                                             
  H          -5.539428             9.552613             7.158782            1             0.031932    [1[6[8][1][1]]]                                             
