12

  C           3.793136            -2.119971             5.263232            0             0.099454    [6[8[1]][1][1][1]]                                          
  O           4.220589            -3.495471             5.145390            0            -0.597823    [8[6[1][1][1]][1]]                                          
  H           3.619160            -3.900213             4.545235            0             0.402573    [1[8[6]]]                                                   
  H           3.588674            -1.651833             4.345481            0             0.031932    [1[6[8][1][1]]]                                             
  H           2.919482            -2.042182             5.867256            0             0.031932    [1[6[8][1][1]]]                                             
  H           4.566814            -1.552746             5.743861            0             0.031932    [1[6[8][1][1]]]                                             
  C           0.670655            -3.364613             3.881287            1             0.099454    [6[8[1]][1][1][1]]                                          
  O           1.611052            -4.392072             3.681750            1            -0.597823    [8[6[1][1][1]][1]]                                          
  H           1.133974            -5.221009             3.843205            1             0.402573    [1[8[6]]]                                                   
  H           1.203016            -2.432358             4.074149            1             0.031932    [1[6[8][1][1]]]                                             
  H          -0.108688            -3.330389             3.112099            1             0.031932    [1[6[8][1][1]]]                                             
  H           0.043285            -3.570151             4.731426            1             0.031932    [1[6[8][1][1]]]                                             
