12

  C           10.085171            9.090846            -6.497490            0             0.099454    [6[8[1]][1][1][1]]                                          
  O           9.870105             7.743981            -6.738684            0            -0.597823    [8[6[1][1][1]][1]]                                          
  H           9.596428             7.627402            -7.668537            0             0.402573    [1[8[6]]]                                                   
  H           10.240051            9.593562            -7.467117            0             0.031932    [1[6[8][1][1]]]                                             
  H           9.364494             9.634166            -5.908815            0             0.031932    [1[6[8][1][1]]]                                             
  H           11.032180            9.300689            -5.983905            0             0.031932    [1[6[8][1][1]]]                                             
  C           10.128805            5.956775            -9.767449            1             0.099454    [6[8[1]][1][1][1]]                                          
  O           9.371061             7.123447            -9.449911            1            -0.597823    [8[6[1][1][1]][1]]                                          
  H           8.536866             7.023984            -9.955294            1             0.402573    [1[8[6]]]                                                   
  H           9.497726             5.098683            -9.608329            1             0.031932    [1[6[8][1][1]]]                                             
  H           10.500042            6.009298            -10.804009           1             0.031932    [1[6[8][1][1]]]                                             
  H           10.994305            5.757026            -9.130638            1             0.031932    [1[6[8][1][1]]]                                             
