12

  C           11.122431           -6.628041            -1.890317            0             0.099454    [6[8[1]][1][1][1]]                                          
  O           9.905243            -7.179315            -1.501402            0            -0.597823    [8[6[1][1][1]][1]]                                          
  H           10.068682           -7.746275            -0.749948            0             0.402573    [1[8[6]]]                                                   
  H           10.926274           -6.025471            -2.797524            0             0.031932    [1[6[8][1][1]]]                                             
  H           11.515017           -5.906287            -1.184463            0             0.031932    [1[6[8][1][1]]]                                             
  H           11.829085           -7.345357            -2.185761            0             0.031932    [1[6[8][1][1]]]                                             
  C           10.945043           -9.349417             0.957887            1             0.099454    [6[8[1]][1][1][1]]                                          
  O           11.539931           -9.408974            -0.392450            1            -0.597823    [8[6[1][1][1]][1]]                                          
  H           12.085055           -10.186081           -0.517375            1             0.402573    [1[8[6]]]                                                   
  H           11.705863           -9.675544             1.657389            1             0.031932    [1[6[8][1][1]]]                                             
  H           10.583126           -8.329971             1.119522            1             0.031932    [1[6[8][1][1]]]                                             
  H           10.167700           -9.991379             1.076542            1             0.031932    [1[6[8][1][1]]]                                             
