12

  C          -9.298286            -3.963653            -8.912593            0             0.099454    [6[8[1]][1][1][1]]                                          
  O          -9.166355            -4.048198            -10.336452           0            -0.597823    [8[6[1][1][1]][1]]                                          
  H          -8.265125            -4.216737            -10.593542           0             0.402573    [1[8[6]]]                                                   
  H          -8.442000            -3.655143            -8.442609            0             0.031932    [1[6[8][1][1]]]                                             
  H          -10.045310           -3.234867            -8.637548            0             0.031932    [1[6[8][1][1]]]                                             
  H          -9.578055            -4.961619            -8.479259            0             0.031932    [1[6[8][1][1]]]                                             
  C          -8.573909            -2.077596            -4.345326            1             0.099454    [6[8[1]][1][1][1]]                                          
  O          -9.735790            -2.214274            -3.613718            1            -0.597823    [8[6[1][1][1]][1]]                                          
  H          -9.935774            -3.090446            -3.276745            1             0.402573    [1[8[6]]]                                                   
  H          -8.233384            -1.011311            -4.283582            1             0.031932    [1[6[8][1][1]]]                                             
  H          -7.841778            -2.740519            -3.977391            1             0.031932    [1[6[8][1][1]]]                                             
  H          -8.738142            -2.353538            -5.386780            1             0.031932    [1[6[8][1][1]]]                                             
