12

  C           3.362927             11.157361           -3.972100            0             0.099454    [6[8[1]][1][1][1]]                                          
  O           4.487657             10.281833           -3.992414            0            -0.597823    [8[6[1][1][1]][1]]                                          
  H           4.173519             9.428726            -4.311482            0             0.402573    [1[8[6]]]                                                   
  H           3.703825             12.269431           -3.982698            0             0.031932    [1[6[8][1][1]]]                                             
  H           2.690348             11.042286           -4.867255            0             0.031932    [1[6[8][1][1]]]                                             
  H           2.719439             11.027690           -3.065363            0             0.031932    [1[6[8][1][1]]]                                             
  C           7.604302             9.430594            -4.653184            1             0.099454    [6[8[1]][1][1][1]]                                          
  O           7.420304             9.981691            -3.343697            1            -0.597823    [8[6[1][1][1]][1]]                                          
  H           6.456757             10.199901           -3.331682            1             0.402573    [1[8[6]]]                                                   
  H           6.931500             8.548023            -4.760006            1             0.031932    [1[6[8][1][1]]]                                             
  H           7.497435             10.232315           -5.420013            1             0.031932    [1[6[8][1][1]]]                                             
  H           8.610127             9.069031            -4.734967            1             0.031932    [1[6[8][1][1]]]                                             
