12

  C           3.632446            -6.994954             3.184119            0             0.099454    [6[8[1]][1][1][1]]                                          
  O           4.407674            -7.329784             1.949356            0            -0.597823    [8[6[1][1][1]][1]]                                          
  H           4.084722            -6.757850             1.277197            0             0.402573    [1[8[6]]]                                                   
  H           3.654814            -7.907382             3.783212            0             0.031932    [1[6[8][1][1]]]                                             
  H           4.085916            -6.202538             3.691906            0             0.031932    [1[6[8][1][1]]]                                             
  H           2.536765            -6.837212             2.963092            0             0.031932    [1[6[8][1][1]]]                                             
  C           5.969071            -3.405384            -0.265019            1             0.099454    [6[8[1]][1][1][1]]                                          
  O           7.102068            -2.889357            -0.942927            1            -0.597823    [8[6[1][1][1]][1]]                                          
  H           7.118643            -1.956619            -0.879665            1             0.402573    [1[8[6]]]                                                   
  H           6.277044            -3.784139             0.691122            1             0.031932    [1[6[8][1][1]]]                                             
  H           5.188285            -2.625284            -0.197412            1             0.031932    [1[6[8][1][1]]]                                             
  H           5.445635            -4.273494            -0.690587            1             0.031932    [1[6[8][1][1]]]                                             
