12

  C           9.977652            -2.198286            -7.359169            0             0.099454    [6[8[1]][1][1][1]]                                          
  O           11.412398           -2.219645            -7.354476            0            -0.597823    [8[6[1][1][1]][1]]                                          
  H           11.773627           -1.911416            -6.524812            0             0.402573    [1[8[6]]]                                                   
  H           9.486885            -2.938841            -6.747138            0             0.031932    [1[6[8][1][1]]]                                             
  H           9.553607            -1.262547            -7.091710            0             0.031932    [1[6[8][1][1]]]                                             
  H           9.519030            -2.212074            -8.322583            0             0.031932    [1[6[8][1][1]]]                                             
  C           10.233008           -4.649190            -10.372277           1             0.099454    [6[8[1]][1][1][1]]                                          
  O           10.941963           -3.435754            -10.600690           1            -0.597823    [8[6[1][1][1]][1]]                                          
  H           11.854709           -3.727263            -10.911129           1             0.402573    [1[8[6]]]                                                   
  H           9.912699            -5.193979            -11.311931           1             0.031932    [1[6[8][1][1]]]                                             
  H           10.827841           -5.308506            -9.770649            1             0.031932    [1[6[8][1][1]]]                                             
  H           9.303941            -4.419266            -9.831335            1             0.031932    [1[6[8][1][1]]]                                             
