12

  C          -11.181573           -6.523769             8.983289            0             0.099454    [6[8[1]][1][1][1]]                                          
  O          -10.070327           -5.877747             9.523657            0            -0.597823    [8[6[1][1][1]][1]]                                          
  H          -9.469174            -5.712060             8.772213            0             0.402573    [1[8[6]]]                                                   
  H          -12.071394           -5.910952             8.875676            0             0.031932    [1[6[8][1][1]]]                                             
  H          -11.053050           -6.945512             7.970016            0             0.031932    [1[6[8][1][1]]]                                             
  H          -11.536426           -7.355774             9.579766            0             0.031932    [1[6[8][1][1]]]                                             
  C          -8.218607            -8.383974             11.218942           1             0.099454    [6[8[1]][1][1][1]]                                          
  O          -8.945942            -7.373133             11.837279           1            -0.597823    [8[6[1][1][1]][1]]                                          
  H          -9.429018            -6.892765             11.130515           1             0.402573    [1[8[6]]]                                                   
  H          -8.804752            -9.064139             10.577870           1             0.031932    [1[6[8][1][1]]]                                             
  H          -7.481241            -8.065095             10.516309           1             0.031932    [1[6[8][1][1]]]                                             
  H          -7.782354            -9.026883             11.973043           1             0.031932    [1[6[8][1][1]]]                                             
