12

  C           6.321475             9.201901             5.207391            0             0.099454    [6[8[1]][1][1][1]]                                          
  O           7.361675             9.472823             6.147094            0            -0.597823    [8[6[1][1][1]][1]]                                          
  H           8.090684             9.082047             5.642757            0             0.402573    [1[8[6]]]                                                   
  H           6.586048             8.325435             4.592221            0             0.031932    [1[6[8][1][1]]]                                             
  H           5.453284             8.830296             5.726521            0             0.031932    [1[6[8][1][1]]]                                             
  H           6.038527             9.983989             4.532099            0             0.031932    [1[6[8][1][1]]]                                             
  C           4.423346             9.794990             1.911556            1             0.099454    [6[8[1]][1][1][1]]                                          
  O           4.461821             9.759707             3.374623            1            -0.597823    [8[6[1][1][1]][1]]                                          
  H           4.307610             8.886481             3.683218            1             0.402573    [1[8[6]]]                                                   
  H           4.804517             10.728253            1.457962            1             0.031932    [1[6[8][1][1]]]                                             
  H           4.994910             8.932887             1.526791            1             0.031932    [1[6[8][1][1]]]                                             
  H           3.371029             9.677512             1.573245            1             0.031932    [1[6[8][1][1]]]                                             
