12

  C          -0.578593            -4.590266            -11.286552           0             0.099454    [6[8[1]][1][1][1]]                                          
  O          -0.826494            -3.380639            -10.623791           0            -0.597823    [8[6[1][1][1]][1]]                                          
  H          -1.176707            -3.622127            -9.780503            0             0.402573    [1[8[6]]]                                                   
  H           0.000340            -4.523567            -12.235142           0             0.031932    [1[6[8][1][1]]]                                             
  H          -0.051351            -5.265744            -10.605710           0             0.031932    [1[6[8][1][1]]]                                             
  H          -1.444858            -5.068640            -11.659935           0             0.031932    [1[6[8][1][1]]]                                             
  C           1.935774            -1.216311            -9.967491            1             0.099454    [6[8[1]][1][1][1]]                                          
  O           2.295418            -2.521551            -10.450723           1            -0.597823    [8[6[1][1][1]][1]]                                          
  H           1.683636            -3.133767            -10.037139           1             0.402573    [1[8[6]]]                                                   
  H           2.752111            -0.815076            -9.399136            1             0.031932    [1[6[8][1][1]]]                                             
  H           1.713906            -0.470383            -10.735176           1             0.031932    [1[6[8][1][1]]]                                             
  H           1.021269            -1.184607            -9.393827            1             0.031932    [1[6[8][1][1]]]                                             
