12

  C           5.206334            -9.057863             6.597827            0             0.099454    [6[8[1]][1][1][1]]                                          
  O           5.847438            -8.835371             5.336983            0            -0.597823    [8[6[1][1][1]][1]]                                          
  H           5.164536            -8.989231             4.744363            0             0.402573    [1[8[6]]]                                                   
  H           5.910274            -9.233634             7.412780            0             0.031932    [1[6[8][1][1]]]                                             
  H           4.588259            -8.188817             6.926912            0             0.031932    [1[6[8][1][1]]]                                             
  H           4.477473            -9.918150             6.582761            0             0.031932    [1[6[8][1][1]]]                                             
  C           2.451181            -9.299457             3.753158            1             0.099454    [6[8[1]][1][1][1]]                                          
  O           3.830511            -9.386070             3.338447            1            -0.597823    [8[6[1][1][1]][1]]                                          
  H           3.817408            -9.446326             2.382565            1             0.402573    [1[8[6]]]                                                   
  H           1.768621            -8.985972             2.933853            1             0.031932    [1[6[8][1][1]]]                                             
  H           2.083960            -10.300967            4.012013            1             0.031932    [1[6[8][1][1]]]                                             
  H           2.255479            -8.550594             4.616617            1             0.031932    [1[6[8][1][1]]]                                             
