12

  C           9.028161            -7.584521             4.100614            0             0.099454    [6[8[1]][1][1][1]]                                          
  O           8.192791            -6.828802             5.014434            0            -0.597823    [8[6[1][1][1]][1]]                                          
  H           7.594326            -6.269406             4.519792            0             0.402573    [1[8[6]]]                                                   
  H           8.513725            -7.939866             3.227101            0             0.031932    [1[6[8][1][1]]]                                             
  H           9.834166            -6.927564             3.751375            0             0.031932    [1[6[8][1][1]]]                                             
  H           9.510038            -8.408056             4.560258            0             0.031932    [1[6[8][1][1]]]                                             
  C           5.169243            -9.493771             5.503406            1             0.099454    [6[8[1]][1][1][1]]                                          
  O           3.942726            -9.233860             4.939729            1            -0.597823    [8[6[1][1][1]][1]]                                          
  H           3.428846            -8.678624             5.570812            1             0.402573    [1[8[6]]]                                                   
  H           5.209470            -9.584556             6.578923            1             0.031932    [1[6[8][1][1]]]                                             
  H           5.409796            -10.512706            5.172332            1             0.031932    [1[6[8][1][1]]]                                             
  H           5.951064            -8.839104             5.193346            1             0.031932    [1[6[8][1][1]]]                                             
