12

  C          -0.715228             1.050743             2.453242            0             0.099454    [6[8[1]][1][1][1]]                                          
  O          -1.854007             0.340821             2.144338            0            -0.597823    [8[6[1][1][1]][1]]                                          
  H          -2.633239             0.803480             2.639829            0             0.402573    [1[8[6]]]                                                   
  H          -0.871798             2.130612             2.284487            0             0.031932    [1[6[8][1][1]]]                                             
  H          -0.449429             0.971583             3.539397            0             0.031932    [1[6[8][1][1]]]                                             
  H           0.102194             0.804007             1.757111            0             0.031932    [1[6[8][1][1]]]                                             
  C           1.759605             3.929659             4.677218            1             0.099454    [6[8[1]][1][1][1]]                                          
  O           0.590745             4.732152             4.814484            1            -0.597823    [8[6[1][1][1]][1]]                                          
  H          -0.023490             4.347957             5.425364            1             0.402573    [1[8[6]]]                                                   
  H           2.534619             4.152760             5.522013            1             0.031932    [1[6[8][1][1]]]                                             
  H           1.522299             2.871857             4.759914            1             0.031932    [1[6[8][1][1]]]                                             
  H           2.193522             3.973006             3.687937            1             0.031932    [1[6[8][1][1]]]                                             
