12

  C           7.637502            -1.565497             0.430449            0             0.099454    [6[8[1]][1][1][1]]                                          
  O           6.279459            -1.591730             0.075538            0            -0.597823    [8[6[1][1][1]][1]]                                          
  H           6.138315            -2.503580             0.236057            0             0.402573    [1[8[6]]]                                                   
  H           8.043561            -0.510717             0.303914            0             0.031932    [1[6[8][1][1]]]                                             
  H           7.798157            -1.853950             1.427963            0             0.031932    [1[6[8][1][1]]]                                             
  H           8.171181            -2.284390            -0.145285            0             0.031932    [1[6[8][1][1]]]                                             
  C           6.954684             0.635758             3.247470            1             0.099454    [6[8[1]][1][1][1]]                                          
  O           6.892328             0.989870             4.614692            1            -0.597823    [8[6[1][1][1]][1]]                                          
  H           6.180510             1.617700             4.690665            1             0.402573    [1[8[6]]]                                                   
  H           7.613959            -0.178764             3.063647            1             0.031932    [1[6[8][1][1]]]                                             
  H           5.953373             0.385232             2.847718            1             0.031932    [1[6[8][1][1]]]                                             
  H           7.251715             1.493073             2.649528            1             0.031932    [1[6[8][1][1]]]                                             
