12

  C           6.480167             4.850157             8.017725            0             0.099454    [6[8[1]][1][1][1]]                                          
  O           6.846940             3.890680             7.044795            0            -0.597823    [8[6[1][1][1]][1]]                                          
  H           7.195709             4.304133             6.297054            0             0.402573    [1[8[6]]]                                                   
  H           7.306813             5.169564             8.669647            0             0.031932    [1[6[8][1][1]]]                                             
  H           6.202793             5.826223             7.485602            0             0.031932    [1[6[8][1][1]]]                                             
  H           5.554086             4.491351             8.572135            0             0.031932    [1[6[8][1][1]]]                                             
  C           9.470453             2.614658             11.330573           1             0.099454    [6[8[1]][1][1][1]]                                          
  O           8.778651             3.780646             10.882165           1            -0.597823    [8[6[1][1][1]][1]]                                          
  H           9.369478             4.290702             10.293446           1             0.402573    [1[8[6]]]                                                   
  H           8.807611             2.047011             12.000019           1             0.031932    [1[6[8][1][1]]]                                             
  H           9.863659             1.958622             10.562629           1             0.031932    [1[6[8][1][1]]]                                             
  H           10.421889            2.906808             11.906521           1             0.031932    [1[6[8][1][1]]]                                             
