12

  C          -1.496025            -3.382061             9.589148            0             0.099454    [6[8[1]][1][1][1]]                                          
  O          -1.734537            -4.354403             10.559055           0            -0.597823    [8[6[1][1][1]][1]]                                          
  H          -2.216467            -5.054147             10.057204           0             0.402573    [1[8[6]]]                                                   
  H          -1.783955            -2.461542             10.078771           0             0.031932    [1[6[8][1][1]]]                                             
  H          -0.408844            -3.244128             9.341061            0             0.031932    [1[6[8][1][1]]]                                             
  H          -2.129496            -3.422291             8.704977            0             0.031932    [1[6[8][1][1]]]                                             
  C          -3.041716            -8.580701             10.183500           1             0.099454    [6[8[1]][1][1][1]]                                          
  O          -2.446202            -7.283140             10.296942           1            -0.597823    [8[6[1][1][1]][1]]                                          
  H          -1.936163            -7.244868             11.073642           1             0.402573    [1[8[6]]]                                                   
  H          -3.982224            -8.650571             10.811262           1             0.031932    [1[6[8][1][1]]]                                             
  H          -3.210273            -8.869459             9.112257            1             0.031932    [1[6[8][1][1]]]                                             
  H          -2.420486            -9.356840             10.629508           1             0.031932    [1[6[8][1][1]]]                                             
