12

  C           3.632446            -6.994954             3.184119            0             0.099454    [6[8[1]][1][1][1]]                                          
  O           4.407674            -7.329784             1.949356            0            -0.597823    [8[6[1][1][1]][1]]                                          
  H           4.084722            -6.757850             1.277197            0             0.402573    [1[8[6]]]                                                   
  H           3.654814            -7.907382             3.783212            0             0.031932    [1[6[8][1][1]]]                                             
  H           4.085916            -6.202538             3.691906            0             0.031932    [1[6[8][1][1]]]                                             
  H           2.536765            -6.837212             2.963092            0             0.031932    [1[6[8][1][1]]]                                             
  C           0.357423            -6.558365             4.784156            1             0.099454    [6[8[1]][1][1][1]]                                          
  O          -0.415425            -7.731200             4.654204            1            -0.597823    [8[6[1][1][1]][1]]                                          
  H          -1.010567            -7.971096             5.396532            1             0.402573    [1[8[6]]]                                                   
  H           1.043747            -6.537130             5.675215            1             0.031932    [1[6[8][1][1]]]                                             
  H           1.034653            -6.491278             3.907203            1             0.031932    [1[6[8][1][1]]]                                             
  H          -0.222701            -5.699073             4.907246            1             0.031932    [1[6[8][1][1]]]                                             
