12

  C           3.968792             8.387656             10.579955           0             0.099454    [6[8[1]][1][1][1]]                                          
  O           3.086890             7.272689             10.231642           0            -0.597823    [8[6[1][1][1]][1]]                                          
  H           2.188274             7.650745             10.307865           0             0.402573    [1[8[6]]]                                                   
  H           3.545260             8.992403             11.442318           0             0.031932    [1[6[8][1][1]]]                                             
  H           4.988270             8.027184             10.820508           0             0.031932    [1[6[8][1][1]]]                                             
  H           4.116574             8.997618             9.652648            0             0.031932    [1[6[8][1][1]]]                                             
  C           3.910685             9.782445             4.854193            1             0.099454    [6[8[1]][1][1][1]]                                          
  O           4.156895             9.057687             6.072297            1            -0.597823    [8[6[1][1][1]][1]]                                          
  H           4.453599             9.647365             6.726900            1             0.402573    [1[8[6]]]                                                   
  H           3.645590             9.023861             4.088601            1             0.031932    [1[6[8][1][1]]]                                             
  H           3.062189             10.520821            4.999484            1             0.031932    [1[6[8][1][1]]]                                             
  H           4.779321             10.393356            4.511406            1             0.031932    [1[6[8][1][1]]]                                             
