12

  C           9.584878             9.486159            -2.318972            0             0.099454    [6[8[1]][1][1][1]]                                          
  O           8.406559             10.126476           -2.024404            0            -0.597823    [8[6[1][1][1]][1]]                                          
  H           7.795485             9.747395            -2.700372            0             0.402573    [1[8[6]]]                                                   
  H           9.401391             8.478447            -2.650509            0             0.031932    [1[6[8][1][1]]]                                             
  H           10.200250            10.016750           -3.046298            0             0.031932    [1[6[8][1][1]]]                                             
  H           10.196088            9.389947            -1.386170            0             0.031932    [1[6[8][1][1]]]                                             
  C           6.976497             8.006726            -7.057729            1             0.099454    [6[8[1]][1][1][1]]                                          
  O           7.408445             9.358313            -6.936746            1            -0.597823    [8[6[1][1][1]][1]]                                          
  H           7.372370             9.843564            -7.800199            1             0.402573    [1[8[6]]]                                                   
  H           6.427452             7.731948            -7.882621            1             0.031932    [1[6[8][1][1]]]                                             
  H           7.838230             7.343526            -7.132434            1             0.031932    [1[6[8][1][1]]]                                             
  H           6.382113             7.740143            -6.200561            1             0.031932    [1[6[8][1][1]]]                                             
