12

  C           6.640702             1.118679             1.001048            0             0.099454    [6[8[1]][1][1][1]]                                          
  O           7.266035            -0.143782             1.123999            0            -0.597823    [8[6[1][1][1]][1]]                                          
  H           7.994274            -0.063849             0.473445            0             0.402573    [1[8[6]]]                                                   
  H           5.730766             1.058960             0.469523            0             0.031932    [1[6[8][1][1]]]                                             
  H           6.333335             1.429739             2.003741            0             0.031932    [1[6[8][1][1]]]                                             
  H           7.222567             1.942048             0.618447            0             0.031932    [1[6[8][1][1]]]                                             
  C           9.179188            -2.296258            -1.378937            1             0.099454    [6[8[1]][1][1][1]]                                          
  O           9.126528            -3.730062            -1.614299            1            -0.597823    [8[6[1][1][1]][1]]                                          
  H           9.780172            -4.125602            -1.001933            1             0.402573    [1[8[6]]]                                                   
  H           10.076277           -2.135125            -0.877923            1             0.031932    [1[6[8][1][1]]]                                             
  H           9.117740            -1.750285            -2.323667            1             0.031932    [1[6[8][1][1]]]                                             
  H           8.413924            -1.920282            -0.682767            1             0.031932    [1[6[8][1][1]]]                                             
