12

  C           3.842016             6.695679             2.250202            0             0.099454    [6[8[1]][1][1][1]]                                          
  O           2.873278             7.246164             1.343030            0            -0.597823    [8[6[1][1][1]][1]]                                          
  H           3.031708             6.919436             0.425400            0             0.402573    [1[8[6]]]                                                   
  H           3.817862             5.565453             2.173094            0             0.031932    [1[6[8][1][1]]]                                             
  H           4.822762             6.953849             1.878522            0             0.031932    [1[6[8][1][1]]]                                             
  H           3.663193             7.138407             3.241986            0             0.031932    [1[6[8][1][1]]]                                             
  C           7.219055             7.169444             4.966093            1             0.099454    [6[8[1]][1][1][1]]                                          
  O           7.661412             8.280458             4.280042            1            -0.597823    [8[6[1][1][1]][1]]                                          
  H           8.536713             8.035610             3.951400            1             0.402573    [1[8[6]]]                                                   
  H           6.173010             6.995546             4.965965            1             0.031932    [1[6[8][1][1]]]                                             
  H           7.549404             6.229393             4.492122            1             0.031932    [1[6[8][1][1]]]                                             
  H           7.548917             7.196411             6.057170            1             0.031932    [1[6[8][1][1]]]                                             
