12

  C           7.257563             6.735818             4.442851            0             0.099454    [6[8[1]][1][1][1]]                                          
  O           8.386543             7.556154             4.548185            0            -0.597823    [8[6[1][1][1]][1]]                                          
  H           9.044606             7.039462             5.018656            0             0.402573    [1[8[6]]]                                                   
  H           7.278685             6.428361             3.430371            0             0.031932    [1[6[8][1][1]]]                                             
  H           7.463774             5.931356             5.183014            0             0.031932    [1[6[8][1][1]]]                                             
  H           6.305239             7.244127             4.579032            0             0.031932    [1[6[8][1][1]]]                                             
  C           8.905412             3.723221             8.095253            1             0.099454    [6[8[1]][1][1][1]]                                          
  O           7.644204             3.455748             8.700712            1            -0.597823    [8[6[1][1][1]][1]]                                          
  H           7.890491             2.887441             9.435179            1             0.402573    [1[8[6]]]                                                   
  H           9.317823             2.764151             7.637089            1             0.031932    [1[6[8][1][1]]]                                             
  H           8.787449             4.390905             7.335888            1             0.031932    [1[6[8][1][1]]]                                             
  H           9.649400             4.099344             8.856138            1             0.031932    [1[6[8][1][1]]]                                             
