12

  C           3.278767             9.966566             6.843198            0             0.099454    [6[8[1]][1][1][1]]                                          
  O           1.925544             10.400813            6.441194            0            -0.597823    [8[6[1][1][1]][1]]                                          
  H           1.443355             9.600670             6.282680            0             0.402573    [1[8[6]]]                                                   
  H           3.783586             9.270249             6.212619            0             0.031932    [1[6[8][1][1]]]                                             
  H           3.982962             10.774376            7.045077            0             0.031932    [1[6[8][1][1]]]                                             
  H           3.233536             9.385685             7.769559            0             0.031932    [1[6[8][1][1]]]                                             
  C          -0.468411             10.917468            9.744762            1             0.099454    [6[8[1]][1][1][1]]                                          
  O           0.367310             10.997238            8.530884            1            -0.597823    [8[6[1][1][1]][1]]                                          
  H           1.283004             10.964284            8.845762            1             0.402573    [1[8[6]]]                                                   
  H          -0.276453             9.959998             10.367247           1             0.031932    [1[6[8][1][1]]]                                             
  H          -0.282208             11.773058            10.431436           1             0.031932    [1[6[8][1][1]]]                                             
  H          -1.528698             10.968892            9.402682            1             0.031932    [1[6[8][1][1]]]                                             
