12

  C          -6.064627             7.188321            -11.432468           0             0.099454    [6[8[1]][1][1][1]]                                          
  O          -5.788437             7.373492            -10.093867           0            -0.597823    [8[6[1][1][1]][1]]                                          
  H          -4.872446             7.602528            -10.077802           0             0.402573    [1[8[6]]]                                                   
  H          -7.156699             7.111076            -11.643021           0             0.031932    [1[6[8][1][1]]]                                             
  H          -5.706428             8.024415            -11.995838           0             0.031932    [1[6[8][1][1]]]                                             
  H          -5.650287             6.228816            -11.865128           0             0.031932    [1[6[8][1][1]]]                                             
  C          -4.210365             4.969740            -8.567934            1             0.099454    [6[8[1]][1][1][1]]                                          
  O          -3.339307             3.880786            -8.748351            1            -0.597823    [8[6[1][1][1]][1]]                                          
  H          -3.229901             3.875587            -9.708577            1             0.402573    [1[8[6]]]                                                   
  H          -4.026477             5.682011            -9.355726            1             0.031932    [1[6[8][1][1]]]                                             
  H          -5.254050             4.707741            -8.586173            1             0.031932    [1[6[8][1][1]]]                                             
  H          -3.923397             5.552361            -7.666104            1             0.031932    [1[6[8][1][1]]]                                             
