12

  C           8.304697             0.773642            -7.879795            0             0.099454    [6[8[1]][1][1][1]]                                          
  O           7.697569            -0.052126            -8.879199            0            -0.597823    [8[6[1][1][1]][1]]                                          
  H           7.046114            -0.492704            -8.416586            0             0.402573    [1[8[6]]]                                                   
  H           8.728058             0.224718            -7.058519            0             0.031932    [1[6[8][1][1]]]                                             
  H           9.138744             1.205424            -8.296531            0             0.031932    [1[6[8][1][1]]]                                             
  H           7.608282             1.530593            -7.478363            0             0.031932    [1[6[8][1][1]]]                                             
  C           10.110529           -3.538022            -10.362752           1             0.099454    [6[8[1]][1][1][1]]                                          
  O           10.360112           -2.184385            -10.469441           1            -0.597823    [8[6[1][1][1]][1]]                                          
  H           9.761213            -1.694418            -9.957847            1             0.402573    [1[8[6]]]                                                   
  H           9.985376            -3.832961            -9.357469            1             0.031932    [1[6[8][1][1]]]                                             
  H           9.162929            -3.809189            -10.892752           1             0.031932    [1[6[8][1][1]]]                                             
  H           10.902557           -4.076878            -10.866006           1             0.031932    [1[6[8][1][1]]]                                             
