12

  C           3.638969            -4.243337            -10.933634           0             0.099454    [6[8[1]][1][1][1]]                                          
  O           2.752678            -4.105651            -9.852440            0            -0.597823    [8[6[1][1][1]][1]]                                          
  H           2.637474            -3.196895            -9.717942            0             0.402573    [1[8[6]]]                                                   
  H           3.322658            -3.639756            -11.848749           0             0.031932    [1[6[8][1][1]]]                                             
  H           4.652541            -3.898487            -10.690251           0             0.031932    [1[6[8][1][1]]]                                             
  H           3.701753            -5.267917            -11.306703           0             0.031932    [1[6[8][1][1]]]                                             
  C           4.437092            -0.808071            -10.256159           1             0.099454    [6[8[1]][1][1][1]]                                          
  O           3.049270            -0.932101            -9.980154            1            -0.597823    [8[6[1][1][1]][1]]                                          
  H           2.555484            -1.028475            -10.807407           1             0.402573    [1[8[6]]]                                                   
  H           5.159058            -1.269933            -9.547572            1             0.031932    [1[6[8][1][1]]]                                             
  H           4.795339            -1.273333            -11.214875           1             0.031932    [1[6[8][1][1]]]                                             
  H           4.641081             0.196038            -10.414987           1             0.031932    [1[6[8][1][1]]]                                             
