12

  C          -7.729322             4.427341             8.202547            0             0.099454    [6[8[1]][1][1][1]]                                          
  O          -7.019809             3.335802             7.681465            0            -0.597823    [8[6[1][1][1]][1]]                                          
  H          -7.560810             2.547871             7.585349            0             0.402573    [1[8[6]]]                                                   
  H          -8.077797             4.298807             9.202275            0             0.031932    [1[6[8][1][1]]]                                             
  H          -7.121937             5.329664             8.121222            0             0.031932    [1[6[8][1][1]]]                                             
  H          -8.610645             4.817844             7.611276            0             0.031932    [1[6[8][1][1]]]                                             
  C          -5.980613             7.120034             8.240921            1             0.099454    [6[8[1]][1][1][1]]                                          
  O          -6.503045             7.926275             9.288026            1            -0.597823    [8[6[1][1][1]][1]]                                          
  H          -5.881209             8.004546             9.989049            1             0.402573    [1[8[6]]]                                                   
  H          -6.668404             6.970982             7.350147            1             0.031932    [1[6[8][1][1]]]                                             
  H          -5.030610             7.453998             7.889338            1             0.031932    [1[6[8][1][1]]]                                             
  H          -5.813076             6.068493             8.513422            1             0.031932    [1[6[8][1][1]]]                                             
