12

  C          -10.133976           -5.212285            -7.569743            0             0.099454    [6[8[1]][1][1][1]]                                          
  O          -9.046556            -6.136931            -7.724401            0            -0.597823    [8[6[1][1][1]][1]]                                          
  H          -8.638359            -6.054136            -8.550942            0             0.402573    [1[8[6]]]                                                   
  H          -10.725536           -5.130315            -8.491277            0             0.031932    [1[6[8][1][1]]]                                             
  H          -10.826191           -5.405642            -6.781274            0             0.031932    [1[6[8][1][1]]]                                             
  H          -9.712326            -4.207788            -7.405187            0             0.031932    [1[6[8][1][1]]]                                             
  C          -8.628860            -6.268213            -11.215775           1             0.099454    [6[8[1]][1][1][1]]                                          
  O          -8.038109            -6.896502            -10.113532           1            -0.597823    [8[6[1][1][1]][1]]                                          
  H          -8.121895            -7.825682            -10.282428           1             0.402573    [1[8[6]]]                                                   
  H          -8.713778            -5.102354            -11.150804           1             0.031932    [1[6[8][1][1]]]                                             
  H          -8.057333            -6.450183            -12.154257           1             0.031932    [1[6[8][1][1]]]                                             
  H          -9.567372            -6.657788            -11.309092           1             0.031932    [1[6[8][1][1]]]                                             
