12

  C          -8.834874             3.164755            -6.942499            0             0.099454    [6[8[1]][1][1][1]]                                          
  O          -8.510381             4.027767            -5.913860            0            -0.597823    [8[6[1][1][1]][1]]                                          
  H          -7.614563             3.811434            -5.733662            0             0.402573    [1[8[6]]]                                                   
  H          -9.347348             2.242143            -6.621761            0             0.031932    [1[6[8][1][1]]]                                             
  H          -9.521020             3.604805            -7.657690            0             0.031932    [1[6[8][1][1]]]                                             
  H          -7.931253             2.856065            -7.511476            0             0.031932    [1[6[8][1][1]]]                                             
  C          -10.563604            5.681070            -3.447789            1             0.099454    [6[8[1]][1][1][1]]                                          
  O          -9.809328             6.199999            -4.474646            1            -0.597823    [8[6[1][1][1]][1]]                                          
  H          -9.208245             5.512544            -4.805590            1             0.402573    [1[8[6]]]                                                   
  H          -11.439028            6.363267            -3.300783            1             0.031932    [1[6[8][1][1]]]                                             
  H          -10.919224            4.688907            -3.654699            1             0.031932    [1[6[8][1][1]]]                                             
  H          -9.913095             5.656583            -2.566495            1             0.031932    [1[6[8][1][1]]]                                             
