12

  C          -6.481891            -7.877271             7.250222            0             0.099454    [6[8[1]][1][1][1]]                                          
  O          -6.198547            -6.565036             6.837370            0            -0.597823    [8[6[1][1][1]][1]]                                          
  H          -6.806889            -6.005382             7.336781            0             0.402573    [1[8[6]]]                                                   
  H          -7.552956            -8.073217             7.112625            0             0.031932    [1[6[8][1][1]]]                                             
  H          -5.784904            -8.580147             6.772301            0             0.031932    [1[6[8][1][1]]]                                             
  H          -6.373916            -7.930089             8.316778            0             0.031932    [1[6[8][1][1]]]                                             
  C          -10.695807           -6.649651             4.959832            1             0.099454    [6[8[1]][1][1][1]]                                          
  O          -11.428309           -5.754532             5.794819            1            -0.597823    [8[6[1][1][1]][1]]                                          
  H          -12.313601           -5.589736             5.453743            1             0.402573    [1[8[6]]]                                                   
  H          -11.365032           -7.374430             4.521126            1             0.031932    [1[6[8][1][1]]]                                             
  H          -10.312134           -6.161509             4.072612            1             0.031932    [1[6[8][1][1]]]                                             
  H          -9.801205            -7.105240             5.391306            1             0.031932    [1[6[8][1][1]]]                                             
