12

  C           2.788778             7.113822             10.181854           0             0.099454    [6[8[1]][1][1][1]]                                          
  O           3.801655             6.976364             9.220775            0            -0.597823    [8[6[1][1][1]][1]]                                          
  H           4.465584             6.400968             9.529224            0             0.402573    [1[8[6]]]                                                   
  H           2.109126             6.241315             10.280435           0             0.031932    [1[6[8][1][1]]]                                             
  H           3.263922             7.233564             11.141851           0             0.031932    [1[6[8][1][1]]]                                             
  H           2.128043             7.959936             9.959660            0             0.031932    [1[6[8][1][1]]]                                             
  C           3.116415             9.494618             6.530826            1             0.099454    [6[8[1]][1][1][1]]                                          
  O           3.287834             9.523754             7.967725            1            -0.597823    [8[6[1][1][1]][1]]                                          
  H           3.556932             8.624524             8.245668            1             0.402573    [1[8[6]]]                                                   
  H           4.026435             9.717809             6.046713            1             0.031932    [1[6[8][1][1]]]                                             
  H           2.839763             8.464632             6.152085            1             0.031932    [1[6[8][1][1]]]                                             
  H           2.406417             10.254568            6.109319            1             0.031932    [1[6[8][1][1]]]                                             
