12

  C           6.480167             4.850157             8.017725            0             0.099454    [6[8[1]][1][1][1]]                                          
  O           6.846940             3.890680             7.044795            0            -0.597823    [8[6[1][1][1]][1]]                                          
  H           7.195709             4.304133             6.297054            0             0.402573    [1[8[6]]]                                                   
  H           7.306813             5.169564             8.669647            0             0.031932    [1[6[8][1][1]]]                                             
  H           6.202793             5.826223             7.485602            0             0.031932    [1[6[8][1][1]]]                                             
  H           5.554086             4.491351             8.572135            0             0.031932    [1[6[8][1][1]]]                                             
  C           3.639988             6.357065             6.076319            1             0.099454    [6[8[1]][1][1][1]]                                          
  O           4.405180             7.512862             5.781901            1            -0.597823    [8[6[1][1][1]][1]]                                          
  H           3.861962             8.228284             5.423984            1             0.402573    [1[8[6]]]                                                   
  H           2.636027             6.467495             5.668467            1             0.031932    [1[6[8][1][1]]]                                             
  H           3.983143             5.472368             5.565540            1             0.031932    [1[6[8][1][1]]]                                             
  H           3.713153             6.233174             7.130214            1             0.031932    [1[6[8][1][1]]]                                             
