12

  C           1.310873             5.480661            -10.596627           0             0.099454    [6[8[1]][1][1][1]]                                          
  O           0.747847             6.689534            -11.032154           0            -0.597823    [8[6[1][1][1]][1]]                                          
  H           0.824475             7.305448            -10.293095           0             0.402573    [1[8[6]]]                                                   
  H           1.374526             4.828493            -11.516798           0             0.031932    [1[6[8][1][1]]]                                             
  H           2.282109             5.512912            -10.040844           0             0.031932    [1[6[8][1][1]]]                                             
  H           0.718205             4.863651            -9.854394            0             0.031932    [1[6[8][1][1]]]                                             
  C          -1.391945             3.297520            -7.878447            1             0.099454    [6[8[1]][1][1][1]]                                          
  O          -1.548555             4.014057            -9.007819            1            -0.597823    [8[6[1][1][1]][1]]                                          
  H          -2.491489             4.133702            -9.258821            1             0.402573    [1[8[6]]]                                                   
  H          -1.953114             3.750853            -7.007505            1             0.031932    [1[6[8][1][1]]]                                             
  H          -1.819787             2.295117            -8.033450            1             0.031932    [1[6[8][1][1]]]                                             
  H          -0.295701             3.124531            -7.632486            1             0.031932    [1[6[8][1][1]]]                                             
