12

  C           0.141561             6.247437             4.342902            0             0.099454    [6[8[1]][1][1][1]]                                          
  O          -0.671210             6.055133             5.470995            0            -0.597823    [8[6[1][1][1]][1]]                                          
  H          -0.143852             5.652897             6.120910            0             0.402573    [1[8[6]]]                                                   
  H           0.997028             6.871239             4.544806            0             0.031932    [1[6[8][1][1]]]                                             
  H           0.411989             5.326716             3.898990            0             0.031932    [1[6[8][1][1]]]                                             
  H          -0.387381             6.739469             3.540981            0             0.031932    [1[6[8][1][1]]]                                             
  C          -3.721515             7.114189             5.374915            1             0.099454    [6[8[1]][1][1][1]]                                          
  O          -2.825459             7.112862             4.252988            1            -0.597823    [8[6[1][1][1]][1]]                                          
  H          -2.702573             6.143561             4.049319            1             0.402573    [1[8[6]]]                                                   
  H          -3.774392             8.048358             5.907747            1             0.031932    [1[6[8][1][1]]]                                             
  H          -4.780194             6.957039             5.092599            1             0.031932    [1[6[8][1][1]]]                                             
  H          -3.378223             6.325659             6.047585            1             0.031932    [1[6[8][1][1]]]                                             
