12

  C          -1.936839            -7.101095            -2.876770            0             0.099454    [6[8[1]][1][1][1]]                                          
  O          -3.061484            -6.946725            -2.043370            0            -0.597823    [8[6[1][1][1]][1]]                                          
  H          -3.335684            -6.055807            -2.122500            0             0.402573    [1[8[6]]]                                                   
  H          -1.004453            -6.991422            -2.356135            0             0.031932    [1[6[8][1][1]]]                                             
  H          -1.884352            -8.095574            -3.432958            0             0.031932    [1[6[8][1][1]]]                                             
  H          -1.945391            -6.367581            -3.715468            0             0.031932    [1[6[8][1][1]]]                                             
  C           0.465366            -6.483530            -5.802632            1             0.099454    [6[8[1]][1][1][1]]                                          
  O           0.708144            -7.246900            -4.625524            1            -0.597823    [8[6[1][1][1]][1]]                                          
  H           1.628458            -6.955806            -4.395569            1             0.402573    [1[8[6]]]                                                   
  H          -0.143682            -5.607123            -5.628660            1             0.031932    [1[6[8][1][1]]]                                             
  H           1.405965            -6.125129            -6.240279            1             0.031932    [1[6[8][1][1]]]                                             
  H           0.071775            -7.043651            -6.518256            1             0.031932    [1[6[8][1][1]]]                                             
