12

  C          -4.396208            -10.088231            7.968100            0             0.099454    [6[8[1]][1][1][1]]                                          
  O          -4.541358            -10.043016            9.397026            0            -0.597823    [8[6[1][1][1]][1]]                                          
  H          -5.374781            -10.508898            9.367996            0             0.402573    [1[8[6]]]                                                   
  H          -3.640328            -10.774000            7.645287            0             0.031932    [1[6[8][1][1]]]                                             
  H          -5.301122            -10.360672            7.370571            0             0.031932    [1[6[8][1][1]]]                                             
  H          -4.204147            -9.012225             7.653104            0             0.031932    [1[6[8][1][1]]]                                             
  C          -1.295361            -8.553143             9.912112            1             0.099454    [6[8[1]][1][1][1]]                                          
  O          -2.235925            -9.285352             10.685450           1            -0.597823    [8[6[1][1][1]][1]]                                          
  H          -2.934043            -9.682984             10.132829           1             0.402573    [1[8[6]]]                                                   
  H          -1.059672            -9.062657             8.946253            1             0.031932    [1[6[8][1][1]]]                                             
  H          -1.589115            -7.485822             9.787120            1             0.031932    [1[6[8][1][1]]]                                             
  H          -0.379330            -8.504913             10.464010           1             0.031932    [1[6[8][1][1]]]                                             
