12

  C          -5.353303             11.069871           -8.863530            0             0.099454    [6[8[1]][1][1][1]]                                          
  O          -6.223960             10.129537           -9.440476            0            -0.597823    [8[6[1][1][1]][1]]                                          
  H          -7.113445             10.492733           -9.573066            0             0.402573    [1[8[6]]]                                                   
  H          -5.404248             12.067274           -9.320768            0             0.031932    [1[6[8][1][1]]]                                             
  H          -5.585512             11.032351           -7.805065            0             0.031932    [1[6[8][1][1]]]                                             
  H          -4.332795             10.687860           -8.945880            0             0.031932    [1[6[8][1][1]]]                                             
  C          -4.073277             7.976176            -7.110372            1             0.099454    [6[8[1]][1][1][1]]                                          
  O          -5.078021             7.769096            -8.089968            1            -0.597823    [8[6[1][1][1]][1]]                                          
  H          -5.291997             8.628323            -8.440307            1             0.402573    [1[8[6]]]                                                   
  H          -4.462552             8.605275            -6.311199            1             0.031932    [1[6[8][1][1]]]                                             
  H          -3.792457             7.025304            -6.538516            1             0.031932    [1[6[8][1][1]]]                                             
  H          -3.206535             8.432150            -7.580872            1             0.031932    [1[6[8][1][1]]]                                             
