12

  C          -7.844242            -0.988290            -1.209791            0             0.099454    [6[8[1]][1][1][1]]                                          
  O          -6.413111            -1.000022            -0.951601            0            -0.597823    [8[6[1][1][1]][1]]                                          
  H          -6.157595            -1.889049            -1.046544            0             0.402573    [1[8[6]]]                                                   
  H          -8.237133             0.054909            -1.327894            0             0.031932    [1[6[8][1][1]]]                                             
  H          -8.068519            -1.457255            -2.187042            0             0.031932    [1[6[8][1][1]]]                                             
  H          -8.488866            -1.463421            -0.452614            0             0.031932    [1[6[8][1][1]]]                                             
  C          -4.128590            -1.843765             1.724450            1             0.099454    [6[8[1]][1][1][1]]                                          
  O          -5.434455            -2.257634             1.790054            1            -0.597823    [8[6[1][1][1]][1]]                                          
  H          -5.983453            -1.607229             1.349417            1             0.402573    [1[8[6]]]                                                   
  H          -3.976567            -0.840677             2.180190            1             0.031932    [1[6[8][1][1]]]                                             
  H          -3.509313            -2.598963             2.167333            1             0.031932    [1[6[8][1][1]]]                                             
  H          -3.743851            -1.804597             0.667647            1             0.031932    [1[6[8][1][1]]]                                             
