12

  C          -1.179622            -0.680025             6.462159            0             0.099454    [6[8[1]][1][1][1]]                                          
  O          -1.994517             0.038928             7.405688            0            -0.597823    [8[6[1][1][1]][1]]                                          
  H          -2.109912             0.907878             7.079844            0             0.402573    [1[8[6]]]                                                   
  H          -0.109920            -0.503745             6.727623            0             0.031932    [1[6[8][1][1]]]                                             
  H          -1.354234            -1.756892             6.522703            0             0.031932    [1[6[8][1][1]]]                                             
  H          -1.366128            -0.313220             5.402350            0             0.031932    [1[6[8][1][1]]]                                             
  C           2.386429             2.995195             8.591899            1             0.099454    [6[8[1]][1][1][1]]                                          
  O           1.849610             4.090954             7.926021            1            -0.597823    [8[6[1][1][1]][1]]                                          
  H           0.922716             3.954351             7.668493            1             0.402573    [1[8[6]]]                                                   
  H           3.472603             3.087747             8.957386            1             0.031932    [1[6[8][1][1]]]                                             
  H           1.871403             2.819979             9.530052            1             0.031932    [1[6[8][1][1]]]                                             
  H           2.375562             2.106276             7.946624            1             0.031932    [1[6[8][1][1]]]                                             
