12

  C           9.121018            -8.002332            -6.658130            0             0.099454    [6[8[1]][1][1][1]]                                          
  O           10.161908           -7.980103            -7.581041            0            -0.597823    [8[6[1][1][1]][1]]                                          
  H           10.228390           -8.853579            -7.970329            0             0.402573    [1[8[6]]]                                                   
  H           8.705024            -7.045005            -6.526222            0             0.031932    [1[6[8][1][1]]]                                             
  H           8.234115            -8.471532            -7.034247            0             0.031932    [1[6[8][1][1]]]                                             
  H           9.419755            -8.306082            -5.708888            0             0.031932    [1[6[8][1][1]]]                                             
  C           7.735640            -3.628557            -5.394134            1             0.099454    [6[8[1]][1][1][1]]                                          
  O           6.374040            -3.628548            -5.142410            1            -0.597823    [8[6[1][1][1]][1]]                                          
  H           5.933957            -4.477045            -5.105908            1             0.402573    [1[8[6]]]                                                   
  H           8.304852            -3.877057            -4.570331            1             0.031932    [1[6[8][1][1]]]                                             
  H           7.857922            -4.475036            -6.074864            1             0.031932    [1[6[8][1][1]]]                                             
  H           8.076524            -2.769222            -5.967372            1             0.031932    [1[6[8][1][1]]]                                             
