12

  C          -0.612086             2.931693            -2.166030            0             0.099454    [6[8[1]][1][1][1]]                                          
  O          -1.917891             3.394526            -2.096503            0            -0.597823    [8[6[1][1][1]][1]]                                          
  H          -2.283379             3.362468            -1.200627            0             0.402573    [1[8[6]]]                                                   
  H          -0.456620             1.838111            -2.061463            0             0.031932    [1[6[8][1][1]]]                                             
  H          -0.083063             3.269453            -3.069938            0             0.031932    [1[6[8][1][1]]]                                             
  H          -0.006313             3.238354            -1.311755            0             0.031932    [1[6[8][1][1]]]                                             
  C          -1.453790             3.205992            -5.926784            1             0.099454    [6[8[1]][1][1][1]]                                          
  O          -1.457875             2.228123            -6.998101            1            -0.597823    [8[6[1][1][1]][1]]                                          
  H          -0.703341             1.666101            -6.898070            1             0.402573    [1[8[6]]]                                                   
  H          -1.332936             2.770356            -4.893537            1             0.031932    [1[6[8][1][1]]]                                             
  H          -0.664551             4.000581            -6.041633            1             0.031932    [1[6[8][1][1]]]                                             
  H          -2.377194             3.697130            -5.930275            1             0.031932    [1[6[8][1][1]]]                                             
