6

  C           2.144737            -1.328025            -7.359754            0             0.089063    [6[8[1]][1][1][1]]                                          
  O           1.662647            -2.566735            -7.799575            0            -0.604789    [8[6[1][1][1]][1]]                                          
  H           1.120256            -2.920308            -7.102677            0             0.406250    [1[8[6]]]                                                   
  H           1.464912            -0.506210            -7.409826            0             0.036492    [1[6[8][1][1]]]                                             
  H           2.408947            -1.353031            -6.285190            0             0.036492    [1[6[8][1][1]]]                                             
  H           3.048631            -0.930215            -7.883937            0             0.036492    [1[6[8][1][1]]]                                             
