12

  C           6.482871             0.175619            -3.124092            0             0.099454    [6[8[1]][1][1][1]]                                          
  O           5.876064             1.479061            -3.086430            0            -0.597823    [8[6[1][1][1]][1]]                                          
  H           5.127288             1.460981            -2.485195            0             0.402573    [1[8[6]]]                                                   
  H           6.305677            -0.243266            -2.102666            0             0.031932    [1[6[8][1][1]]]                                             
  H           5.921835            -0.472918            -3.836024            0             0.031932    [1[6[8][1][1]]]                                             
  H           7.590044             0.153542            -3.268757            0             0.031932    [1[6[8][1][1]]]                                             
  C           3.170945             0.983623            -6.569867            1             0.099454    [6[8[1]][1][1][1]]                                          
  O           4.280881             0.472252            -5.817686            1            -0.597823    [8[6[1][1][1]][1]]                                          
  H           4.458388             1.056046            -5.107771            1             0.402573    [1[8[6]]]                                                   
  H           3.371466             2.121854            -6.607864            1             0.031932    [1[6[8][1][1]]]                                             
  H           3.348184             0.656798            -7.618752            1             0.031932    [1[6[8][1][1]]]                                             
  H           2.126035             0.707362            -6.156423            1             0.031932    [1[6[8][1][1]]]                                             
