12

  C           9.510002             3.753170            -5.325528            0             0.099454    [6[8[1]][1][1][1]]                                          
  O           9.876401             4.225670            -4.068210            0            -0.597823    [8[6[1][1][1]][1]]                                          
  H           10.364098            5.018810            -4.265636            0             0.402573    [1[8[6]]]                                                   
  H           8.978419             2.857762            -5.197583            0             0.031932    [1[6[8][1][1]]]                                             
  H           8.779346             4.325251            -5.874902            0             0.031932    [1[6[8][1][1]]]                                             
  H           10.363160            3.582555            -6.031037            0             0.031932    [1[6[8][1][1]]]                                             
  C           10.617867            0.336756            -3.608992            1             0.099454    [6[8[1]][1][1][1]]                                          
  O           11.777566           -0.433742            -3.701011            1            -0.597823    [8[6[1][1][1]][1]]                                          
  H           12.452453            0.202574            -3.976502            1             0.402573    [1[8[6]]]                                                   
  H           10.156272            0.244509            -2.655682            1             0.031932    [1[6[8][1][1]]]                                             
  H           10.910703            1.349251            -3.675621            1             0.031932    [1[6[8][1][1]]]                                             
  H           9.901700             0.017406            -4.360395            1             0.031932    [1[6[8][1][1]]]                                             
