12

  C          -5.192736            -2.225288             6.637700            0             0.099454    [6[8[1]][1][1][1]]                                          
  O          -5.408181            -1.507434             5.386835            0            -0.597823    [8[6[1][1][1]][1]]                                          
  H          -4.517370            -1.420161             5.041826            0             0.402573    [1[8[6]]]                                                   
  H          -4.838058            -1.544956             7.408872            0             0.031932    [1[6[8][1][1]]]                                             
  H          -6.004383            -2.688830             7.117625            0             0.031932    [1[6[8][1][1]]]                                             
  H          -4.338427            -2.918640             6.592779            0             0.031932    [1[6[8][1][1]]]                                             
  C          -3.154112             1.021255             8.295838            1             0.099454    [6[8[1]][1][1][1]]                                          
  O          -2.076771             1.277094             7.378946            1            -0.597823    [8[6[1][1][1]][1]]                                          
  H          -1.328674             1.533873             7.973581            1             0.402573    [1[8[6]]]                                                   
  H          -3.482555            -0.035456             8.307757            1             0.031932    [1[6[8][1][1]]]                                             
  H          -2.847816             1.249508             9.316630            1             0.031932    [1[6[8][1][1]]]                                             
  H          -4.133166             1.517679             7.981497            1             0.031932    [1[6[8][1][1]]]                                             
