12

  C           1.282036            -0.526095            -2.447714            0             0.099454    [6[8[1]][1][1][1]]                                          
  O           0.667628             0.654097            -2.888777            0            -0.597823    [8[6[1][1][1]][1]]                                          
  H          -0.115765             0.328344            -3.366132            0             0.402573    [1[8[6]]]                                                   
  H           0.807238            -0.864721            -1.598369            0             0.031932    [1[6[8][1][1]]]                                             
  H           1.260012            -1.403564            -3.131987            0             0.031932    [1[6[8][1][1]]]                                             
  H           2.306597            -0.287448            -2.217805            0             0.031932    [1[6[8][1][1]]]                                             
  C           1.894563            -0.448606            -6.696315            1             0.099454    [6[8[1]][1][1][1]]                                          
  O           1.036595            -1.215132            -5.832134            1            -0.597823    [8[6[1][1][1]][1]]                                          
  H           0.100914            -1.153265            -6.088149            1             0.402573    [1[8[6]]]                                                   
  H           1.823900            -0.652552            -7.801693            1             0.031932    [1[6[8][1][1]]]                                             
  H           1.867213             0.673488            -6.495648            1             0.031932    [1[6[8][1][1]]]                                             
  H           2.991278            -0.743414            -6.465432            1             0.031932    [1[6[8][1][1]]]                                             
