12

  C          -0.066139            -6.006657             6.636389            0             0.099454    [6[8[1]][1][1][1]]                                          
  O          -0.752408            -5.862081             7.824022            0            -0.597823    [8[6[1][1][1]][1]]                                          
  H          -0.803631            -4.933314             7.990587            0             0.402573    [1[8[6]]]                                                   
  H          -0.008752            -5.147557             6.027307            0             0.031932    [1[6[8][1][1]]]                                             
  H           0.898532            -6.436435             6.915708            0             0.031932    [1[6[8][1][1]]]                                             
  H          -0.564332            -6.732301             5.985013            0             0.031932    [1[6[8][1][1]]]                                             
  C           0.850529            -3.873660             10.870279           1             0.099454    [6[8[1]][1][1][1]]                                          
  O           0.868618            -3.677440             9.450225            1            -0.597823    [8[6[1][1][1]][1]]                                          
  H          -0.073803            -3.332150             9.267791            1             0.402573    [1[8[6]]]                                                   
  H           0.716920            -2.973114             11.436462           1             0.031932    [1[6[8][1][1]]]                                             
  H          -0.005009            -4.572064             11.182163           1             0.031932    [1[6[8][1][1]]]                                             
  H           1.870404            -4.225057             11.212077           1             0.031932    [1[6[8][1][1]]]                                             
