12

  C           8.791782            -0.730577             4.408944            0             0.099454    [6[8[1]][1][1][1]]                                          
  O           9.268081            -2.081288             4.514631            0            -0.597823    [8[6[1][1][1]][1]]                                          
  H           8.682510            -2.631129             4.036008            0             0.402573    [1[8[6]]]                                                   
  H           8.956816            -0.301256             3.481077            0             0.031932    [1[6[8][1][1]]]                                             
  H           7.728045            -0.609651             4.653355            0             0.031932    [1[6[8][1][1]]]                                             
  H           9.286766            -0.091580             5.141704            0             0.031932    [1[6[8][1][1]]]                                             
  C           10.563372           -5.654747             3.505832            1             0.099454    [6[8[1]][1][1][1]]                                          
  O           11.111717           -4.404740             3.040707            1            -0.597823    [8[6[1][1][1]][1]]                                          
  H           10.361361           -3.905842             2.783787            1             0.402573    [1[8[6]]]                                                   
  H           9.791847            -5.538091             4.269721            1             0.031932    [1[6[8][1][1]]]                                             
  H           10.130539           -6.235199             2.589249            1             0.031932    [1[6[8][1][1]]]                                             
  H           11.338688           -6.200359             3.990725            1             0.031932    [1[6[8][1][1]]]                                             
