12

  C           1.882657            -5.473259            -4.311445            0             0.099454    [6[8[1]][1][1][1]]                                          
  O           1.200089            -6.616802            -4.829966            0            -0.597823    [8[6[1][1][1]][1]]                                          
  H           0.588911            -6.281126            -5.540718            0             0.402573    [1[8[6]]]                                                   
  H           2.877696            -5.712606            -3.843402            0             0.031932    [1[6[8][1][1]]]                                             
  H           2.170245            -4.752331            -5.142988            0             0.031932    [1[6[8][1][1]]]                                             
  H           1.250145            -4.869591            -3.657311            0             0.031932    [1[6[8][1][1]]]                                             
  C           0.741644            -9.961062            -5.985418            1             0.099454    [6[8[1]][1][1][1]]                                          
  O          -0.296424            -10.858472           -5.471608            1            -0.597823    [8[6[1][1][1]][1]]                                          
  H          -0.946359            -10.348229           -4.948801            1             0.402573    [1[8[6]]]                                                   
  H           1.510999            -10.492507           -6.512257            1             0.031932    [1[6[8][1][1]]]                                             
  H           0.381211            -9.186542            -6.686297            1             0.031932    [1[6[8][1][1]]]                                             
  H           1.110891            -9.255089            -5.188916            1             0.031932    [1[6[8][1][1]]]                                             
