12

  C           6.640702             1.118679             1.001048            0             0.099454    [6[8[1]][1][1][1]]                                          
  O           7.266035            -0.143782             1.123999            0            -0.597823    [8[6[1][1][1]][1]]                                          
  H           7.994274            -0.063849             0.473445            0             0.402573    [1[8[6]]]                                                   
  H           5.730766             1.058960             0.469523            0             0.031932    [1[6[8][1][1]]]                                             
  H           6.333335             1.429739             2.003741            0             0.031932    [1[6[8][1][1]]]                                             
  H           7.222567             1.942048             0.618447            0             0.031932    [1[6[8][1][1]]]                                             
  C           5.015185             2.098689            -2.292997            1             0.099454    [6[8[1]][1][1][1]]                                          
  O           4.811069             3.184856            -1.427389            1            -0.597823    [8[6[1][1][1]][1]]                                          
  H           4.689620             2.836388            -0.561679            1             0.402573    [1[8[6]]]                                                   
  H           5.319712             2.430071            -3.330601            1             0.031932    [1[6[8][1][1]]]                                             
  H           5.797498             1.483168            -1.938380            1             0.031932    [1[6[8][1][1]]]                                             
  H           4.220047             1.414178            -2.445597            1             0.031932    [1[6[8][1][1]]]                                             
