12

  C           8.058946            -9.033042             0.461038            0             0.099454    [6[8[1]][1][1][1]]                                          
  O           8.872390            -8.090761             1.090432            0            -0.597823    [8[6[1][1][1]][1]]                                          
  H           8.823240            -8.265778             1.999192            0             0.402573    [1[8[6]]]                                                   
  H           7.747471            -8.809037            -0.550858            0             0.031932    [1[6[8][1][1]]]                                             
  H           8.601848            -9.949009             0.269711            0             0.031932    [1[6[8][1][1]]]                                             
  H           7.118040            -9.192842             0.968932            0             0.031932    [1[6[8][1][1]]]                                             
  C           3.434464            -6.323335            -0.905216            1             0.099454    [6[8[1]][1][1][1]]                                          
  O           4.164704            -7.455818            -1.326360            1            -0.597823    [8[6[1][1][1]][1]]                                          
  H           3.560411            -8.224098            -1.348252            1             0.402573    [1[8[6]]]                                                   
  H           4.097257            -5.507385            -0.597335            1             0.031932    [1[6[8][1][1]]]                                             
  H           2.775232            -6.025212            -1.737524            1             0.031932    [1[6[8][1][1]]]                                             
  H           2.795566            -6.570912            -0.068298            1             0.031932    [1[6[8][1][1]]]                                             
