12

  C           0.387438             7.211846            -3.550846            0             0.099454    [6[8[1]][1][1][1]]                                          
  O           1.792564             7.463747            -3.620765            0            -0.597823    [8[6[1][1][1]][1]]                                          
  H           2.049877             7.318178            -2.693924            0             0.402573    [1[8[6]]]                                                   
  H           0.212305             6.111345            -3.715045            0             0.031932    [1[6[8][1][1]]]                                             
  H          -0.024939             7.621403            -2.647262            0             0.031932    [1[6[8][1][1]]]                                             
  H          -0.201617             7.672835            -4.356984            0             0.031932    [1[6[8][1][1]]]                                             
  C           2.863150             7.744078            -6.929804            1             0.099454    [6[8[1]][1][1][1]]                                          
  O           2.217452             6.588471            -6.509607            1            -0.597823    [8[6[1][1][1]][1]]                                          
  H           1.930361             6.680088            -5.611710            1             0.402573    [1[8[6]]]                                                   
  H           3.641672             7.552157            -7.665934            1             0.031932    [1[6[8][1][1]]]                                             
  H           2.103435             8.484738            -7.333405            1             0.031932    [1[6[8][1][1]]]                                             
  H           3.349563             8.173691            -6.102497            1             0.031932    [1[6[8][1][1]]]                                             
