12

  C          -2.110928             11.390825            7.574175            0             0.099454    [6[8[1]][1][1][1]]                                          
  O          -1.303257             10.316187            7.707575            0            -0.597823    [8[6[1][1][1]][1]]                                          
  H          -1.872668             9.562282             7.848446            0             0.402573    [1[8[6]]]                                                   
  H          -1.498166             12.268386            7.471384            0             0.031932    [1[6[8][1][1]]]                                             
  H          -2.755923             11.272451            6.697372            0             0.031932    [1[6[8][1][1]]]                                             
  H          -2.764465             11.399083            8.410064            0             0.031932    [1[6[8][1][1]]]                                             
  C           0.420741             10.623479            11.305474           1             0.099454    [6[8[1]][1][1][1]]                                          
  O           0.797643             9.738341             10.295396           1            -0.597823    [8[6[1][1][1]][1]]                                          
  H           0.225182             9.836223             9.508148            1             0.402573    [1[8[6]]]                                                   
  H           0.955184             10.412358            12.187692           1             0.031932    [1[6[8][1][1]]]                                             
  H           0.691266             11.632230            10.996081           1             0.031932    [1[6[8][1][1]]]                                             
  H          -0.674842             10.649295            11.323613           1             0.031932    [1[6[8][1][1]]]                                             
