12

  C          -1.171793             5.934240             5.579448            0             0.099454    [6[8[1]][1][1][1]]                                          
  O          -0.309131             4.850648             5.364397            0            -0.597823    [8[6[1][1][1]][1]]                                          
  H          -0.566829             4.437277             4.482448            0             0.402573    [1[8[6]]]                                                   
  H          -1.154150             6.680770             4.732149            0             0.031932    [1[6[8][1][1]]]                                             
  H          -2.241465             5.558941             5.543396            0             0.031932    [1[6[8][1][1]]]                                             
  H          -0.988504             6.613440             6.458835            0             0.031932    [1[6[8][1][1]]]                                             
  C          -2.210150             4.309729             2.179350            1             0.099454    [6[8[1]][1][1][1]]                                          
  O          -2.099163             3.474252             3.360581            1            -0.597823    [8[6[1][1][1]][1]]                                          
  H          -2.770289             2.741984             3.380769            1             0.402573    [1[8[6]]]                                                   
  H          -1.626261             3.910436             1.350685            1             0.031932    [1[6[8][1][1]]]                                             
  H          -3.312350             4.480102             1.869655            1             0.031932    [1[6[8][1][1]]]                                             
  H          -1.674488             5.251024             2.293240            1             0.031932    [1[6[8][1][1]]]                                             
