12

  C          -7.165838             1.970965            -4.316710            0             0.099454    [6[8[1]][1][1][1]]                                          
  O          -8.140504             2.659230            -3.460284            0            -0.597823    [8[6[1][1][1]][1]]                                          
  H          -7.664392             2.899198            -2.666859            0             0.402573    [1[8[6]]]                                                   
  H          -6.972118             0.987659            -3.975152            0             0.031932    [1[6[8][1][1]]]                                             
  H          -7.564475             1.801484            -5.267749            0             0.031932    [1[6[8][1][1]]]                                             
  H          -6.156702             2.463355            -4.387189            0             0.031932    [1[6[8][1][1]]]                                             
  C          -8.901903             4.646790            -6.480300            1             0.099454    [6[8[1]][1][1][1]]                                          
  O          -9.287550             4.929981            -5.152760            1            -0.597823    [8[6[1][1][1]][1]]                                          
  H          -9.324098             4.186371            -4.506365            1             0.402573    [1[8[6]]]                                                   
  H          -8.524538             5.545997            -6.966401            1             0.031932    [1[6[8][1][1]]]                                             
  H          -8.151947             3.864213            -6.609913            1             0.031932    [1[6[8][1][1]]]                                             
  H          -9.751853             4.390354            -7.154337            1             0.031932    [1[6[8][1][1]]]                                             
