12

  C          -1.043704            -4.234054             3.067058            0             0.099454    [6[8[1]][1][1][1]]                                          
  O          -0.967894            -4.898226             4.364749            0            -0.597823    [8[6[1][1][1]][1]]                                          
  H          -1.811567            -5.220936             4.592340            0             0.402573    [1[8[6]]]                                                   
  H          -1.580061            -3.307889             3.073810            0             0.031932    [1[6[8][1][1]]]                                             
  H          -0.006759            -3.989458             2.723288            0             0.031932    [1[6[8][1][1]]]                                             
  H          -1.542091            -4.895781             2.312860            0             0.031932    [1[6[8][1][1]]]                                             
  C           2.928405            -4.897013             3.100463            1             0.099454    [6[8[1]][1][1][1]]                                          
  O           3.763834            -5.370832             4.138863            1            -0.597823    [8[6[1][1][1]][1]]                                          
  H           3.540010            -4.773488             4.876151            1             0.402573    [1[8[6]]]                                                   
  H           3.055190            -3.814017             3.010638            1             0.031932    [1[6[8][1][1]]]                                             
  H           3.178260            -5.289934             2.165220            1             0.031932    [1[6[8][1][1]]]                                             
  H           1.860662            -5.090949             3.175196            1             0.031932    [1[6[8][1][1]]]                                             
