12

  C           8.138163             2.013779             8.440012            0             0.099454    [6[8[1]][1][1][1]]                                          
  O           8.449880             2.296050             7.073773            0            -0.597823    [8[6[1][1][1]][1]]                                          
  H           8.958610             1.573154             6.754095            0             0.402573    [1[8[6]]]                                                   
  H           7.680784             2.922407             8.860548            0             0.031932    [1[6[8][1][1]]]                                             
  H           7.458505             1.109173             8.484702            0             0.031932    [1[6[8][1][1]]]                                             
  H           9.035666             1.771950             8.988343            0             0.031932    [1[6[8][1][1]]]                                             
  C           6.217340            -1.346205             4.088742            1             0.099454    [6[8[1]][1][1][1]]                                          
  O           6.697135            -1.248581             5.395807            1            -0.597823    [8[6[1][1][1]][1]]                                          
  H           7.653262            -1.220963             5.333175            1             0.402573    [1[8[6]]]                                                   
  H           6.205620            -0.444576             3.465276            1             0.031932    [1[6[8][1][1]]]                                             
  H           6.666536            -2.072092             3.429082            1             0.031932    [1[6[8][1][1]]]                                             
  H           5.130316            -1.505163             4.044797            1             0.031932    [1[6[8][1][1]]]                                             
