14

C -0.93772000           0.48060000          -0.03997000         
C  0.40160000           1.13028000          -0.40487000         
H -0.94967000          -0.58161000          -0.36531000         
H -1.77125000           1.00822000          -0.55089000         
H -1.10857000           0.52036000           1.05756000         
C  0.41045000           2.60627000           0.00828000         
H  1.37201000           3.08013000          -0.28336000         
H  0.28056000           2.70808000           1.10742000         
H -0.41258000           3.15169000          -0.50094000         
C  1.55981000           0.38074000           0.26271000         
H  0.53316000           1.07169000          -1.50785000         
H  1.46581000           0.41590000           1.36961000         
H  2.52991000           0.83718000          -0.02848000         
H  1.56628000          -0.68172000          -0.06201000         
