12

  C           1.101496            -2.053978             7.307832            0             0.099454    [6[8[1]][1][1][1]]                                          
  O           1.384987            -2.297058             5.969188            0            -0.597823    [8[6[1][1][1]][1]]                                          
  H           1.151471            -3.185395             5.702275            0             0.402573    [1[8[6]]]                                                   
  H           1.317104            -1.048099             7.698919            0             0.031932    [1[6[8][1][1]]]                                             
  H           0.046442            -2.231063             7.406682            0             0.031932    [1[6[8][1][1]]]                                             
  H           1.610017            -2.809292             7.907819            0             0.031932    [1[6[8][1][1]]]                                             
  C           4.314791             1.944755             9.566462            1             0.099454    [6[8[1]][1][1][1]]                                          
  O           4.388719             1.792061             10.983726           1            -0.597823    [8[6[1][1][1]][1]]                                          
  H           3.553498             1.371571             11.172228           1             0.402573    [1[8[6]]]                                                   
  H           5.240343             2.315913             9.168318            1             0.031932    [1[6[8][1][1]]]                                             
  H           4.116550             0.993853             9.151503            1             0.031932    [1[6[8][1][1]]]                                             
  H           3.430578             2.508991             9.255235            1             0.031932    [1[6[8][1][1]]]                                             
