6

  C          -0.924680            -4.427317            -0.750055            0             0.089063    [6[8[1]][1][1][1]]                                          
  O           0.429760            -4.168611            -1.123283            0            -0.604789    [8[6[1][1][1]][1]]                                          
  H           1.133390            -4.645305            -0.624123            0             0.406250    [1[8[6]]]                                                   
  H          -1.646051            -3.812803            -1.363401            0             0.036492    [1[6[8][1][1]]]                                             
  H          -1.208949            -5.459957            -1.110140            0             0.036492    [1[6[8][1][1]]]                                             
  H          -1.215006            -4.244556             0.305782            0             0.036492    [1[6[8][1][1]]]                                             
