12

  C          -0.942349            -0.312623             6.462802            0             0.099454    [6[8[1]][1][1][1]]                                          
  O          -1.254387            -1.464392             7.229617            0            -0.597823    [8[6[1][1][1]][1]]                                          
  H          -0.880571            -2.244624             6.848968            0             0.402573    [1[8[6]]]                                                   
  H          -1.109190            -0.446360             5.396069            0             0.031932    [1[6[8][1][1]]]                                             
  H          -1.477128             0.535260             6.817403            0             0.031932    [1[6[8][1][1]]]                                             
  H           0.090158            -0.179774             6.506438            0             0.031932    [1[6[8][1][1]]]                                             
  C          -6.295172            -0.932665             9.024132            1             0.099454    [6[8[1]][1][1][1]]                                          
  O          -5.551728            -2.079553             8.661784            1            -0.597823    [8[6[1][1][1]][1]]                                          
  H          -4.841213            -2.128622             9.347700            1             0.402573    [1[8[6]]]                                                   
  H          -5.825474            -0.144839             9.515437            1             0.031932    [1[6[8][1][1]]]                                             
  H          -6.774904            -0.515204             8.099150            1             0.031932    [1[6[8][1][1]]]                                             
  H          -7.126621            -1.110847             9.700110            1             0.031932    [1[6[8][1][1]]]                                             
