12

  C          -2.148013             2.129847             1.911966            0             0.099454    [6[8[1]][1][1][1]]                                          
  O          -0.703100             2.202816             2.039990            0            -0.597823    [8[6[1][1][1]][1]]                                          
  H          -0.327344             2.930984             1.522731            0             0.402573    [1[8[6]]]                                                   
  H          -2.414317             2.238284             0.914172            0             0.031932    [1[6[8][1][1]]]                                             
  H          -2.582117             1.155431             2.198879            0             0.031932    [1[6[8][1][1]]]                                             
  H          -2.594961             2.946416             2.554262            0             0.031932    [1[6[8][1][1]]]                                             
  C          -2.004281            -1.792086            -0.094840            1             0.099454    [6[8[1]][1][1][1]]                                          
  O          -1.622860            -1.390812            -1.373817            1            -0.597823    [8[6[1][1][1]][1]]                                          
  H          -1.735763            -2.098400            -2.056411            1             0.402573    [1[8[6]]]                                                   
  H          -2.906951            -2.470413             0.013711            1             0.031932    [1[6[8][1][1]]]                                             
  H          -1.205589            -2.376961             0.445969            1             0.031932    [1[6[8][1][1]]]                                             
  H          -2.270964            -1.025600             0.552701            1             0.031932    [1[6[8][1][1]]]                                             
