12

  C          -0.126466            -7.668901            -4.868698            0             0.099454    [6[8[1]][1][1][1]]                                          
  O           0.538743            -8.388895            -5.905771            0            -0.597823    [8[6[1][1][1]][1]]                                          
  H           0.233319            -8.126804            -6.738606            0             0.402573    [1[8[6]]]                                                   
  H          -1.219544            -8.059974            -4.893778            0             0.031932    [1[6[8][1][1]]]                                             
  H           0.273618            -7.846774            -3.918215            0             0.031932    [1[6[8][1][1]]]                                             
  H          -0.142561            -6.508430            -5.077860            0             0.031932    [1[6[8][1][1]]]                                             
  C          -0.907765            -10.387057           -7.837134            1             0.099454    [6[8[1]][1][1][1]]                                          
  O           0.405391            -10.686019           -7.496707            1            -0.597823    [8[6[1][1][1]][1]]                                          
  H           0.426644            -10.754461           -6.527792            1             0.402573    [1[8[6]]]                                                   
  H          -1.282115            -9.678535            -7.062980            1             0.031932    [1[6[8][1][1]]]                                             
  H          -0.910572            -9.964160            -8.848894            1             0.031932    [1[6[8][1][1]]]                                             
  H          -1.557584            -11.213663           -7.775463            1             0.031932    [1[6[8][1][1]]]                                             
