6

  C           3.598002             1.084443             4.554980            0             0.089063    [6[8[1]][1][1][1]]                                          
  O           3.552048             0.633322             3.154209            0            -0.604789    [8[6[1][1][1]][1]]                                          
  H           2.611616             0.821296             2.895008            0             0.406250    [1[8[6]]]                                                   
  H           3.569478             2.186008             4.664372            0             0.036492    [1[6[8][1][1]]]                                             
  H           2.923770             0.584426             5.189445            0             0.036492    [1[6[8][1][1]]]                                             
  H           4.605427             0.784779             4.977506            0             0.036492    [1[6[8][1][1]]]                                             
