12

  C           6.644204            -5.381908             9.413953            0             0.099454    [6[8[1]][1][1][1]]                                          
  O           6.052512            -6.076243             8.369976            0            -0.597823    [8[6[1][1][1]][1]]                                          
  H           6.674226            -6.664635             7.970221            0             0.402573    [1[8[6]]]                                                   
  H           5.870115            -4.708260             9.921547            0             0.031932    [1[6[8][1][1]]]                                             
  H           6.957315            -6.125516             10.130067           0             0.031932    [1[6[8][1][1]]]                                             
  H           7.387805            -4.639974             9.029258            0             0.031932    [1[6[8][1][1]]]                                             
  C           5.206334            -9.057863             6.597827            1             0.099454    [6[8[1]][1][1][1]]                                          
  O           5.847438            -8.835371             5.336983            1            -0.597823    [8[6[1][1][1]][1]]                                          
  H           5.164536            -8.989231             4.744363            1             0.402573    [1[8[6]]]                                                   
  H           5.910274            -9.233634             7.412780            1             0.031932    [1[6[8][1][1]]]                                             
  H           4.588259            -8.188817             6.926912            1             0.031932    [1[6[8][1][1]]]                                             
  H           4.477473            -9.918150             6.582761            1             0.031932    [1[6[8][1][1]]]                                             
