12

  C           10.075611            6.830938            -8.894365            0             0.099454    [6[8[1]][1][1][1]]                                          
  O           8.833961             6.302375            -8.430890            0            -0.597823    [8[6[1][1][1]][1]]                                          
  H           8.378268             6.007736            -9.213528            0             0.402573    [1[8[6]]]                                                   
  H           10.782056            7.052458            -8.123057            0             0.031932    [1[6[8][1][1]]]                                             
  H           10.633551            6.010513            -9.486578            0             0.031932    [1[6[8][1][1]]]                                             
  H           10.056742            7.765154            -9.460617            0             0.031932    [1[6[8][1][1]]]                                             
  C           7.155457             7.048348            -5.245436            1             0.099454    [6[8[1]][1][1][1]]                                          
  O           8.111682             7.607375            -6.051942            1            -0.597823    [8[6[1][1][1]][1]]                                          
  H           8.181568             6.976840            -6.746608            1             0.402573    [1[8[6]]]                                                   
  H           7.198763             7.493300            -4.269922            1             0.031932    [1[6[8][1][1]]]                                             
  H           6.164159             7.136600            -5.741470            1             0.031932    [1[6[8][1][1]]]                                             
  H           7.250105             5.976703            -5.032908            1             0.031932    [1[6[8][1][1]]]                                             
