12

  C          -4.029221             8.344015             5.610913            0             0.099454    [6[8[1]][1][1][1]]                                          
  O          -2.999871             7.977746             4.667712            0            -0.597823    [8[6[1][1][1]][1]]                                          
  H          -3.310125             8.320182             3.789893            0             0.402573    [1[8[6]]]                                                   
  H          -3.622109             8.473960             6.626864            0             0.031932    [1[6[8][1][1]]]                                             
  H          -4.597087             9.250479             5.314208            0             0.031932    [1[6[8][1][1]]]                                             
  H          -4.851451             7.575020             5.727861            0             0.031932    [1[6[8][1][1]]]                                             
  C          -5.925478             6.762485             8.283272            1             0.099454    [6[8[1]][1][1][1]]                                          
  O          -6.433259             7.176933             9.574631            1            -0.597823    [8[6[1][1][1]][1]]                                          
  H          -7.336822             7.465403             9.412063            1             0.402573    [1[8[6]]]                                                   
  H          -6.479207             7.250024             7.448698            1             0.031932    [1[6[8][1][1]]]                                             
  H          -4.900665             7.061786             8.193284            1             0.031932    [1[6[8][1][1]]]                                             
  H          -6.040697             5.616280             8.186349            1             0.031932    [1[6[8][1][1]]]                                             
