12

  C          -0.715228             1.050743             2.453242            0             0.099454    [6[8[1]][1][1][1]]                                          
  O          -1.854007             0.340821             2.144338            0            -0.597823    [8[6[1][1][1]][1]]                                          
  H          -2.633239             0.803480             2.639829            0             0.402573    [1[8[6]]]                                                   
  H          -0.871798             2.130612             2.284487            0             0.031932    [1[6[8][1][1]]]                                             
  H          -0.449429             0.971583             3.539397            0             0.031932    [1[6[8][1][1]]]                                             
  H           0.102194             0.804007             1.757111            0             0.031932    [1[6[8][1][1]]]                                             
  C           1.922953            -3.077625             2.484926            1             0.099454    [6[8[1]][1][1][1]]                                          
  O           1.345528            -3.086113             1.131528            1            -0.597823    [8[6[1][1][1]][1]]                                          
  H           1.970459            -2.601192             0.562478            1             0.402573    [1[8[6]]]                                                   
  H           2.975251            -2.827903             2.476688            1             0.031932    [1[6[8][1][1]]]                                             
  H           1.326520            -2.461149             3.132407            1             0.031932    [1[6[8][1][1]]]                                             
  H           1.791371            -4.136435             2.840835            1             0.031932    [1[6[8][1][1]]]                                             
