12

  C           8.138163             2.013779             8.440012            0             0.099454    [6[8[1]][1][1][1]]                                          
  O           8.449880             2.296050             7.073773            0            -0.597823    [8[6[1][1][1]][1]]                                          
  H           8.958610             1.573154             6.754095            0             0.402573    [1[8[6]]]                                                   
  H           7.680784             2.922407             8.860548            0             0.031932    [1[6[8][1][1]]]                                             
  H           7.458505             1.109173             8.484702            0             0.031932    [1[6[8][1][1]]]                                             
  H           9.035666             1.771950             8.988343            0             0.031932    [1[6[8][1][1]]]                                             
  C           9.433927             3.809536             4.294545            1             0.099454    [6[8[1]][1][1][1]]                                          
  O           10.619094            3.558914             3.626370            1            -0.597823    [8[6[1][1][1]][1]]                                          
  H           10.521387            3.870881             2.708562            1             0.402573    [1[8[6]]]                                                   
  H           9.059793             4.788925             4.102573            1             0.031932    [1[6[8][1][1]]]                                             
  H           8.593438             3.107075             4.075959            1             0.031932    [1[6[8][1][1]]]                                             
  H           9.706451             3.738270             5.396693            1             0.031932    [1[6[8][1][1]]]                                             
