12

  C          -2.287004            -7.105774            -7.763036            0             0.099454    [6[8[1]][1][1][1]]                                          
  O          -0.949285            -7.170664            -8.203545            0            -0.597823    [8[6[1][1][1]][1]]                                          
  H          -0.939735            -7.506460            -9.050222            0             0.402573    [1[8[6]]]                                                   
  H          -2.333886            -6.430946            -6.937260            0             0.031932    [1[6[8][1][1]]]                                             
  H          -2.922818            -6.617067            -8.546304            0             0.031932    [1[6[8][1][1]]]                                             
  H          -2.776979            -8.069040            -7.408969            0             0.031932    [1[6[8][1][1]]]                                             
  C          -6.805916            -6.748151            -5.901701            1             0.099454    [6[8[1]][1][1][1]]                                          
  O          -5.681329            -7.510598            -6.026313            1            -0.597823    [8[6[1][1][1]][1]]                                          
  H          -5.736484            -8.379775            -5.658797            1             0.402573    [1[8[6]]]                                                   
  H          -7.200829            -6.626899            -4.873511            1             0.031932    [1[6[8][1][1]]]                                             
  H          -6.523811            -5.749640            -6.282327            1             0.031932    [1[6[8][1][1]]]                                             
  H          -7.607116            -7.095424            -6.519180            1             0.031932    [1[6[8][1][1]]]                                             
