12

  C          -9.588072            -1.444471             5.461368            0             0.099454    [6[8[1]][1][1][1]]                                          
  O          -10.403230           -2.633637             5.367968            0            -0.597823    [8[6[1][1][1]][1]]                                          
  H          -11.278415           -2.425012             5.028035            0             0.402573    [1[8[6]]]                                                   
  H          -9.139766            -1.218325             4.490122            0             0.031932    [1[6[8][1][1]]]                                             
  H          -10.162974           -0.559693             5.727943            0             0.031932    [1[6[8][1][1]]]                                             
  H          -8.740249            -1.545357             6.116138            0             0.031932    [1[6[8][1][1]]]                                             
  C          -6.180716            -0.682254             7.171741            1             0.099454    [6[8[1]][1][1][1]]                                          
  O          -6.499451            -2.054292             7.213974            1            -0.597823    [8[6[1][1][1]][1]]                                          
  H          -5.640469            -2.484737             7.183619            1             0.402573    [1[8[6]]]                                                   
  H          -6.759320            -0.134508             6.378333            1             0.031932    [1[6[8][1][1]]]                                             
  H          -6.352808            -0.289618             8.170732            1             0.031932    [1[6[8][1][1]]]                                             
  H          -5.133995            -0.500338             6.914693            1             0.031932    [1[6[8][1][1]]]                                             
