12

  C           2.523888             4.676657             7.090738            0             0.099454    [6[8[1]][1][1][1]]                                          
  O           2.566897             6.070124             6.773619            0            -0.597823    [8[6[1][1][1]][1]]                                          
  H           1.949694             6.599378             7.303895            0             0.402573    [1[8[6]]]                                                   
  H           3.367195             4.206097             6.586594            0             0.031932    [1[6[8][1][1]]]                                             
  H           2.634672             4.644139             8.164876            0             0.031932    [1[6[8][1][1]]]                                             
  H           1.636308             4.135860             6.734283            0             0.031932    [1[6[8][1][1]]]                                             
  C           4.925837             7.410630             4.917166            1             0.099454    [6[8[1]][1][1][1]]                                          
  O           4.454631             8.192782             6.072312            1            -0.597823    [8[6[1][1][1]][1]]                                          
  H           4.090017             7.434244             6.638904            1             0.402573    [1[8[6]]]                                                   
  H           4.138016             7.472935             4.115969            1             0.031932    [1[6[8][1][1]]]                                             
  H           5.899441             7.748438             4.407945            1             0.031932    [1[6[8][1][1]]]                                             
  H           4.893873             6.343783             5.211386            1             0.031932    [1[6[8][1][1]]]                                             
