12

  C           6.643819            -5.073961             2.193083            0             0.099454    [6[8[1]][1][1][1]]                                          
  O           6.713602            -3.959975             1.388510            0            -0.597823    [8[6[1][1][1]][1]]                                          
  H           7.603339            -3.876061             1.129665            0             0.402573    [1[8[6]]]                                                   
  H           5.676125            -5.296266             2.692927            0             0.031932    [1[6[8][1][1]]]                                             
  H           7.024868            -5.958597             1.775256            0             0.031932    [1[6[8][1][1]]]                                             
  H           7.375252            -4.882919             3.008673            0             0.031932    [1[6[8][1][1]]]                                             
  C           4.357055            -0.921012             0.508239            1             0.099454    [6[8[1]][1][1][1]]                                          
  O           4.768038            -2.020735            -0.250055            1            -0.597823    [8[6[1][1][1]][1]]                                          
  H           5.388173            -2.572599             0.225571            1             0.402573    [1[8[6]]]                                                   
  H           3.704529            -1.196182             1.324755            1             0.031932    [1[6[8][1][1]]]                                             
  H           5.206016            -0.304580             0.819030            1             0.031932    [1[6[8][1][1]]]                                             
  H           3.826832            -0.204135            -0.156533            1             0.031932    [1[6[8][1][1]]]                                             
