6

  C           1.192799            -4.195803            -0.602249            0             0.089063    [6[8[1]][1][1][1]]                                          
  O           1.666724            -4.088809             0.709919            0            -0.604789    [8[6[1][1][1]][1]]                                          
  H           2.433013            -4.743410             0.702376            0             0.406250    [1[8[6]]]                                                   
  H           0.465404            -3.426715            -0.760269            0             0.036492    [1[6[8][1][1]]]                                             
  H           1.994914            -4.012707            -1.327426            0             0.036492    [1[6[8][1][1]]]                                             
  H           0.776439            -5.122151            -0.877539            0             0.036492    [1[6[8][1][1]]]                                             
