12

  C          -7.667179            -9.209066             3.339312            0             0.099454    [6[8[1]][1][1][1]]                                          
  O          -8.331323            -9.779651             4.428187            0            -0.597823    [8[6[1][1][1]][1]]                                          
  H          -8.630029            -10.674345            4.174091            0             0.402573    [1[8[6]]]                                                   
  H          -6.594837            -9.317972             3.473686            0             0.031932    [1[6[8][1][1]]]                                             
  H          -7.952272            -9.648018             2.417688            0             0.031932    [1[6[8][1][1]]]                                             
  H          -7.931544            -8.142269             3.023550            0             0.031932    [1[6[8][1][1]]]                                             
  C          -4.824653            -10.147423            5.995258            1             0.099454    [6[8[1]][1][1][1]]                                          
  O          -3.540694            -9.794573             6.520729            1            -0.597823    [8[6[1][1][1]][1]]                                          
  H          -3.402781            -8.849417             6.277806            1             0.402573    [1[8[6]]]                                                   
  H          -5.412021            -9.291457             5.854448            1             0.031932    [1[6[8][1][1]]]                                             
  H          -4.591156            -10.588656            5.073679            1             0.031932    [1[6[8][1][1]]]                                             
  H          -5.447185            -10.807198            6.600243            1             0.031932    [1[6[8][1][1]]]                                             
