12

  C          -6.308179            -5.387465            -2.161918            0             0.099454    [6[8[1]][1][1][1]]                                          
  O          -4.901234            -5.451709            -1.749648            0            -0.597823    [8[6[1][1][1]][1]]                                          
  H          -4.873933            -6.027285            -0.960875            0             0.402573    [1[8[6]]]                                                   
  H          -6.791508            -4.616564            -1.659120            0             0.031932    [1[6[8][1][1]]]                                             
  H          -6.432112            -5.097386            -3.261564            0             0.031932    [1[6[8][1][1]]]                                             
  H          -6.785034            -6.313867            -1.949980            0             0.031932    [1[6[8][1][1]]]                                             
  C          -2.777689            -7.211392            -3.956291            1             0.099454    [6[8[1]][1][1][1]]                                          
  O          -3.585356            -6.113868            -4.081193            1            -0.597823    [8[6[1][1][1]][1]]                                          
  H          -4.096781            -6.082679            -3.274285            1             0.402573    [1[8[6]]]                                                   
  H          -2.257111            -7.294132            -2.998504            1             0.031932    [1[6[8][1][1]]]                                             
  H          -3.385381            -8.071290            -4.182716            1             0.031932    [1[6[8][1][1]]]                                             
  H          -2.046691            -7.163911            -4.738484            1             0.031932    [1[6[8][1][1]]]                                             
