12

  C          -1.552654            -0.347999             4.263472            0             0.099454    [6[8[1]][1][1][1]]                                          
  O          -0.675985            -0.786314             3.238730            0            -0.597823    [8[6[1][1][1]][1]]                                          
  H          -1.311521            -0.903148             2.507645            0             0.402573    [1[8[6]]]                                                   
  H          -1.893925             0.644904             3.934240            0             0.031932    [1[6[8][1][1]]]                                             
  H          -2.420135            -0.936720             4.503697            0             0.031932    [1[6[8][1][1]]]                                             
  H          -1.047543            -0.169033             5.200596            0             0.031932    [1[6[8][1][1]]]                                             
  C           2.446534            -0.957080             0.953767            1             0.099454    [6[8[1]][1][1][1]]                                          
  O           2.263740             0.339248             0.481250            1            -0.597823    [8[6[1][1][1]][1]]                                          
  H           1.355955             0.315129             0.097831            1             0.402573    [1[8[6]]]                                                   
  H           3.538243            -1.159601             1.151109            1             0.031932    [1[6[8][1][1]]]                                             
  H           1.993574            -1.125897             1.934658            1             0.031932    [1[6[8][1][1]]]                                             
  H           2.053428            -1.697646             0.202763            1             0.031932    [1[6[8][1][1]]]                                             
