12

  C          -2.327879            -1.689422            -8.778547            0             0.099454    [6[8[1]][1][1][1]]                                          
  O          -1.414397            -2.216028            -7.842568            0            -0.597823    [8[6[1][1][1]][1]]                                          
  H          -1.431879            -3.135477            -8.159358            0             0.402573    [1[8[6]]]                                                   
  H          -1.907718            -1.481460            -9.705796            0             0.031932    [1[6[8][1][1]]]                                             
  H          -3.138934            -2.311804            -8.966968            0             0.031932    [1[6[8][1][1]]]                                             
  H          -2.843604            -0.810400            -8.339234            0             0.031932    [1[6[8][1][1]]]                                             
  C           2.353081            -0.880350            -6.504355            1             0.099454    [6[8[1]][1][1][1]]                                          
  O           1.661441             0.076911            -7.250293            1            -0.597823    [8[6[1][1][1]][1]]                                          
  H           1.107674             0.525825            -6.662091            1             0.402573    [1[8[6]]]                                                   
  H           1.606776            -1.531496            -6.087425            1             0.031932    [1[6[8][1][1]]]                                             
  H           2.995200            -1.478688            -7.120673            1             0.031932    [1[6[8][1][1]]]                                             
  H           2.889406            -0.455719            -5.641669            1             0.031932    [1[6[8][1][1]]]                                             
