12

  C          -2.198624             9.615270             1.579089            0             0.099454    [6[8[1]][1][1][1]]                                          
  O          -2.591249             8.515751             2.357670            0            -0.597823    [8[6[1][1][1]][1]]                                          
  H          -3.042198             8.817431             3.150511            0             0.402573    [1[8[6]]]                                                   
  H          -2.964768             10.342810            1.400862            0             0.031932    [1[6[8][1][1]]]                                             
  H          -1.380174             10.190098            2.092665            0             0.031932    [1[6[8][1][1]]]                                             
  H          -1.801923             9.420872             0.610234            0             0.031932    [1[6[8][1][1]]]                                             
  C          -3.676988             6.258992             5.410534            1             0.099454    [6[8[1]][1][1][1]]                                          
  O          -2.437939             6.218606             6.109411            1            -0.597823    [8[6[1][1][1]][1]]                                          
  H          -2.542098             5.874862             6.986939            1             0.402573    [1[8[6]]]                                                   
  H          -4.129947             5.276658             5.246592            1             0.031932    [1[6[8][1][1]]]                                             
  H          -4.294873             7.006507             5.893704            1             0.031932    [1[6[8][1][1]]]                                             
  H          -3.527705             6.585124             4.395753            1             0.031932    [1[6[8][1][1]]]                                             
