12

  C          -7.546642             5.310844            -2.485952            0             0.099454    [6[8[1]][1][1][1]]                                          
  O          -6.537382             4.702897            -1.704250            0            -0.597823    [8[6[1][1][1]][1]]                                          
  H          -6.634103             3.799627            -2.072274            0             0.402573    [1[8[6]]]                                                   
  H          -7.343214             5.297082            -3.570693            0             0.031932    [1[6[8][1][1]]]                                             
  H          -8.497672             4.889586            -2.433377            0             0.031932    [1[6[8][1][1]]]                                             
  H          -7.670592             6.410111            -2.234567            0             0.031932    [1[6[8][1][1]]]                                             
  C          -3.789158             7.906341            -2.669329            1             0.099454    [6[8[1]][1][1][1]]                                          
  O          -4.091139             7.734431            -4.022103            1            -0.597823    [8[6[1][1][1]][1]]                                          
  H          -3.333544             7.539611            -4.474038            1             0.402573    [1[8[6]]]                                                   
  H          -4.517442             8.488544            -2.173604            1             0.031932    [1[6[8][1][1]]]                                             
  H          -3.769773             6.916868            -2.177394            1             0.031932    [1[6[8][1][1]]]                                             
  H          -2.835355             8.451827            -2.529979            1             0.031932    [1[6[8][1][1]]]                                             
