12

  C           0.107441             2.741054            -3.055841            0             0.099454    [6[8[1]][1][1][1]]                                          
  O           0.093632             2.479985            -1.676650            0            -0.597823    [8[6[1][1][1]][1]]                                          
  H          -0.116713             3.352322            -1.369150            0             0.402573    [1[8[6]]]                                                   
  H           0.781831             3.560905            -3.329535            0             0.031932    [1[6[8][1][1]]]                                             
  H           0.429337             1.873700            -3.602147            0             0.031932    [1[6[8][1][1]]]                                             
  H          -0.921354             2.900499            -3.482296            0             0.031932    [1[6[8][1][1]]]                                             
  C          -2.313152             2.209491             1.472491            1             0.099454    [6[8[1]][1][1][1]]                                          
  O          -3.409687             1.365567             1.882178            1            -0.597823    [8[6[1][1][1]][1]]                                          
  H          -3.929460             1.988193             2.385590            1             0.402573    [1[8[6]]]                                                   
  H          -1.861746             1.840108             0.494320            1             0.031932    [1[6[8][1][1]]]                                             
  H          -2.520141             3.299756             1.321185            1             0.031932    [1[6[8][1][1]]]                                             
  H          -1.539403             2.151524             2.219451            1             0.031932    [1[6[8][1][1]]]                                             
