12

  C           1.101496            -2.053978             7.307832            0             0.099454    [6[8[1]][1][1][1]]                                          
  O           1.384987            -2.297058             5.969188            0            -0.597823    [8[6[1][1][1]][1]]                                          
  H           1.151471            -3.185395             5.702275            0             0.402573    [1[8[6]]]                                                   
  H           1.317104            -1.048099             7.698919            0             0.031932    [1[6[8][1][1]]]                                             
  H           0.046442            -2.231063             7.406682            0             0.031932    [1[6[8][1][1]]]                                             
  H           1.610017            -2.809292             7.907819            0             0.031932    [1[6[8][1][1]]]                                             
  C           3.469008            -1.396693             3.312950            1             0.099454    [6[8[1]][1][1][1]]                                          
  O           3.053525            -0.547470             4.334124            1            -0.597823    [8[6[1][1][1]][1]]                                          
  H           2.250818            -0.779523             4.803818            1             0.402573    [1[8[6]]]                                                   
  H           2.663102            -1.734516             2.755334            1             0.031932    [1[6[8][1][1]]]                                             
  H           4.191269            -0.832370             2.641933            1             0.031932    [1[6[8][1][1]]]                                             
  H           4.043062            -2.278263             3.746632            1             0.031932    [1[6[8][1][1]]]                                             
