12

  C           10.203951            1.252872            -11.061372           0             0.099454    [6[8[1]][1][1][1]]                                          
  O           9.891632             1.233883            -9.680468            0            -0.597823    [8[6[1][1][1]][1]]                                          
  H           9.214858             0.514658            -9.573875            0             0.402573    [1[8[6]]]                                                   
  H           10.398544            0.211944            -11.358739           0             0.031932    [1[6[8][1][1]]]                                             
  H           9.434172             1.617646            -11.717113           0             0.031932    [1[6[8][1][1]]]                                             
  H           11.011528            1.917265            -11.319516           0             0.031932    [1[6[8][1][1]]]                                             
  C           9.366187             0.624596            -5.339413            1             0.099454    [6[8[1]][1][1][1]]                                          
  O           10.301075            0.533873            -6.427278            1            -0.597823    [8[6[1][1][1]][1]]                                          
  H           10.001555            1.286976            -6.961508            1             0.402573    [1[8[6]]]                                                   
  H           8.946661            -0.335658            -5.017299            1             0.031932    [1[6[8][1][1]]]                                             
  H           9.898062             0.986266            -4.445433            1             0.031932    [1[6[8][1][1]]]                                             
  H           8.551581             1.369687            -5.505726            1             0.031932    [1[6[8][1][1]]]                                             
