12

  C          -4.021581             2.799748            -3.951247            0             0.099454    [6[8[1]][1][1][1]]                                          
  O          -3.968984             3.408857            -2.693875            0            -0.597823    [8[6[1][1][1]][1]]                                          
  H          -3.428997             4.133400            -2.976944            0             0.402573    [1[8[6]]]                                                   
  H          -4.837682             2.116741            -4.115847            0             0.031932    [1[6[8][1][1]]]                                             
  H          -4.388551             3.544017            -4.698766            0             0.031932    [1[6[8][1][1]]]                                             
  H          -3.031499             2.512948            -4.232440            0             0.031932    [1[6[8][1][1]]]                                             
  C          -2.415535            -0.971302            -7.674667            1             0.099454    [6[8[1]][1][1][1]]                                          
  O          -3.117178            -0.081729            -6.746123            1            -0.597823    [8[6[1][1][1]][1]]                                          
  H          -3.902999             0.348662            -7.180337            1             0.402573    [1[8[6]]]                                                   
  H          -1.751958            -0.437656            -8.368405            1             0.031932    [1[6[8][1][1]]]                                             
  H          -1.859473            -1.788429            -7.245069            1             0.031932    [1[6[8][1][1]]]                                             
  H          -3.184254            -1.533560            -8.318336            1             0.031932    [1[6[8][1][1]]]                                             
