12

  C           6.494887            -9.319664             0.599304            0             0.099454    [6[8[1]][1][1][1]]                                          
  O           6.530466            -9.264981             2.010500            0            -0.597823    [8[6[1][1][1]][1]]                                          
  H           6.957669            -10.100235            2.248466            0             0.402573    [1[8[6]]]                                                   
  H           5.656828            -9.905448             0.193507            0             0.031932    [1[6[8][1][1]]]                                             
  H           6.395575            -8.342034             0.169458            0             0.031932    [1[6[8][1][1]]]                                             
  H           7.472226            -9.620610             0.188917            0             0.031932    [1[6[8][1][1]]]                                             
  C           4.223520            -10.032611            4.805641            1             0.099454    [6[8[1]][1][1][1]]                                          
  O           2.979543            -10.721792            4.726138            1            -0.597823    [8[6[1][1][1]][1]]                                          
  H           2.877643            -10.978138            3.793741            1             0.402573    [1[8[6]]]                                                   
  H           4.545430            -9.361094             3.979504            1             0.031932    [1[6[8][1][1]]]                                             
  H           4.223243            -9.353971             5.656804            1             0.031932    [1[6[8][1][1]]]                                             
  H           5.004691            -10.707598            5.085326            1             0.031932    [1[6[8][1][1]]]                                             
