12

  C          -8.023118             5.970073            -7.301579            0             0.099454    [6[8[1]][1][1][1]]                                          
  O          -7.208899             5.748031            -6.199433            0            -0.597823    [8[6[1][1][1]][1]]                                          
  H          -7.582233             5.100643            -5.540227            0             0.402573    [1[8[6]]]                                                   
  H          -8.491772             6.984259            -7.204203            0             0.031932    [1[6[8][1][1]]]                                             
  H          -7.494694             5.832346            -8.256467            0             0.031932    [1[6[8][1][1]]]                                             
  H          -8.841849             5.215604            -7.301558            0             0.031932    [1[6[8][1][1]]]                                             
  C          -6.884273             2.759162            -10.565749           1             0.099454    [6[8[1]][1][1][1]]                                          
  O          -7.233005             2.340191            -11.865965           1            -0.597823    [8[6[1][1][1]][1]]                                          
  H          -7.718869             3.042188            -12.262749           1             0.402573    [1[8[6]]]                                                   
  H          -6.190884             1.959772            -10.206315           1             0.031932    [1[6[8][1][1]]]                                             
  H          -6.272609             3.739494            -10.517569           1             0.031932    [1[6[8][1][1]]]                                             
  H          -7.605629             2.739941            -9.851805            1             0.031932    [1[6[8][1][1]]]                                             
