12

  C           0.388477             4.100360             7.695616            0             0.099454    [6[8[1]][1][1][1]]                                          
  O          -0.947411             4.692757             7.944071            0            -0.597823    [8[6[1][1][1]][1]]                                          
  H          -1.091817             5.388982             7.292805            0             0.402573    [1[8[6]]]                                                   
  H           1.164795             4.910124             7.802517            0             0.031932    [1[6[8][1][1]]]                                             
  H           0.723529             3.246645             8.329768            0             0.031932    [1[6[8][1][1]]]                                             
  H           0.383064             3.620852             6.668489            0             0.031932    [1[6[8][1][1]]]                                             
  C          -2.263954             4.738131             10.922419           1             0.099454    [6[8[1]][1][1][1]]                                          
  O          -0.929349             4.370361             10.997662           1            -0.597823    [8[6[1][1][1]][1]]                                          
  H          -0.760159             3.497367             11.411799           1             0.402573    [1[8[6]]]                                                   
  H          -2.695928             4.511880             11.908057           1             0.031932    [1[6[8][1][1]]]                                             
  H          -2.366060             5.768363             10.646159           1             0.031932    [1[6[8][1][1]]]                                             
  H          -2.790602             4.087023             10.237023           1             0.031932    [1[6[8][1][1]]]                                             
