12

  C           7.257563             6.735818             4.442851            0             0.099454    [6[8[1]][1][1][1]]                                          
  O           8.386543             7.556154             4.548185            0            -0.597823    [8[6[1][1][1]][1]]                                          
  H           9.044606             7.039462             5.018656            0             0.402573    [1[8[6]]]                                                   
  H           7.278685             6.428361             3.430371            0             0.031932    [1[6[8][1][1]]]                                             
  H           7.463774             5.931356             5.183014            0             0.031932    [1[6[8][1][1]]]                                             
  H           6.305239             7.244127             4.579032            0             0.031932    [1[6[8][1][1]]]                                             
  C           2.133361             7.137426             6.794470            1             0.099454    [6[8[1]][1][1][1]]                                          
  O           3.422089             7.275639             7.377078            1            -0.597823    [8[6[1][1][1]][1]]                                          
  H           3.459965             6.780640             8.178787            1             0.402573    [1[8[6]]]                                                   
  H           2.011717             6.085576             6.397610            1             0.031932    [1[6[8][1][1]]]                                             
  H           1.310506             7.357630             7.547516            1             0.031932    [1[6[8][1][1]]]                                             
  H           2.139126             7.935520             6.013690            1             0.031932    [1[6[8][1][1]]]                                             
