12

  C           8.993395             7.768408            -1.929499            0             0.099454    [6[8[1]][1][1][1]]                                          
  O           8.277690             6.973573            -2.867001            0            -0.597823    [8[6[1][1][1]][1]]                                          
  H           8.425852             6.002038            -2.621908            0             0.402573    [1[8[6]]]                                                   
  H           8.719667             7.623738            -0.890754            0             0.031932    [1[6[8][1][1]]]                                             
  H           10.017294            7.538047            -2.089698            0             0.031932    [1[6[8][1][1]]]                                             
  H           8.693752             8.789069            -2.138796            0             0.031932    [1[6[8][1][1]]]                                             
  C           9.745298             5.083402             1.782673            1             0.099454    [6[8[1]][1][1][1]]                                          
  O           10.423921            6.121988             1.166058            1            -0.597823    [8[6[1][1][1]][1]]                                          
  H           10.411888            5.829857             0.220622            1             0.402573    [1[8[6]]]                                                   
  H           8.651582             5.107699             1.579043            1             0.031932    [1[6[8][1][1]]]                                             
  H           10.105484            4.151773             1.427554            1             0.031932    [1[6[8][1][1]]]                                             
  H           9.845843             5.177307             2.919829            1             0.031932    [1[6[8][1][1]]]                                             
