12

  C           5.369477            -6.342536            -0.441178            0             0.099454    [6[8[1]][1][1][1]]                                          
  O           5.334754            -5.019816             0.209316            0            -0.597823    [8[6[1][1][1]][1]]                                          
  H           4.689948            -4.385982            -0.258636            0             0.402573    [1[8[6]]]                                                   
  H           5.435570            -7.157379             0.285672            0             0.031932    [1[6[8][1][1]]]                                             
  H           4.490291            -6.557346            -0.960870            0             0.031932    [1[6[8][1][1]]]                                             
  H           6.075459            -6.414477            -1.304671            0             0.031932    [1[6[8][1][1]]]                                             
  C           6.188934            -4.857423            -4.247510            1             0.099454    [6[8[1]][1][1][1]]                                          
  O           7.074866            -5.615235            -5.057782            1            -0.597823    [8[6[1][1][1]][1]]                                          
  H           7.897927            -5.141377            -5.178186            1             0.402573    [1[8[6]]]                                                   
  H           6.510234            -4.836641            -3.244249            1             0.031932    [1[6[8][1][1]]]                                             
  H           6.135170            -3.765486            -4.495306            1             0.031932    [1[6[8][1][1]]]                                             
  H           5.240519            -5.352060            -4.303331            1             0.031932    [1[6[8][1][1]]]                                             
