6
Coordinates from ORCA-job 8_geo_opt
  C   3.01167247528030     -1.18048425971459      0.59826647217106
  O   4.39528556124465     -1.12801671431859      0.87439460915181
  H   4.76859016162840     -0.37785253134872      0.41085331204669
  H   2.80724615889513     -1.31841386843867     -0.46969272496241
  H   2.61070490465319     -2.03953394634361      1.13516339363786
  H   2.48555473829833     -0.28381867983583      0.94546193795500
