12

  C          -5.018804            -11.394211            4.335101            0             0.099454    [6[8[1]][1][1][1]]                                          
  O          -4.125954            -10.858784            5.383765            0            -0.597823    [8[6[1][1][1]][1]]                                          
  H          -3.702437            -10.083851            5.035189            0             0.402573    [1[8[6]]]                                                   
  H          -5.527582            -10.505104            3.828122            0             0.031932    [1[6[8][1][1]]]                                             
  H          -4.441818            -11.900742            3.519998            0             0.031932    [1[6[8][1][1]]]                                             
  H          -5.719270            -12.198359            4.600835            0             0.031932    [1[6[8][1][1]]]                                             
  C          -0.665410            -8.380681             4.393711            1             0.099454    [6[8[1]][1][1][1]]                                          
  O           0.289953            -8.164521             5.389637            1            -0.597823    [8[6[1][1][1]][1]]                                          
  H           0.352855            -8.938722             5.877031            1             0.402573    [1[8[6]]]                                                   
  H          -0.398421            -7.807642             3.558172            1             0.031932    [1[6[8][1][1]]]                                             
  H          -0.649855            -9.464361             4.143995            1             0.031932    [1[6[8][1][1]]]                                             
  H          -1.682944            -8.024090             4.647246            1             0.031932    [1[6[8][1][1]]]                                             
