12

  C          -3.841102             6.614214             4.620056            0             0.099454    [6[8[1]][1][1][1]]                                          
  O          -3.327764             5.808069             3.606693            0            -0.597823    [8[6[1][1][1]][1]]                                          
  H          -2.593277             6.280095             3.215739            0             0.402573    [1[8[6]]]                                                   
  H          -4.227038             7.550951             4.196775            0             0.031932    [1[6[8][1][1]]]                                             
  H          -4.778707             6.249320             4.989437            0             0.031932    [1[6[8][1][1]]]                                             
  H          -3.116987             6.809601             5.396907            0             0.031932    [1[6[8][1][1]]]                                             
  C          -3.271868             2.136895             3.383500            1             0.099454    [6[8[1]][1][1][1]]                                          
  O          -2.382350             3.164202             3.374353            1            -0.597823    [8[6[1][1][1]][1]]                                          
  H          -2.899568             3.985669             3.406576            1             0.402573    [1[8[6]]]                                                   
  H          -2.731020             1.117228             3.518354            1             0.031932    [1[6[8][1][1]]]                                             
  H          -3.845044             2.326833             4.235113            1             0.031932    [1[6[8][1][1]]]                                             
  H          -3.987816             2.124145             2.480175            1             0.031932    [1[6[8][1][1]]]                                             
