6

  C           10.497073           -3.038141             5.985491            0             0.089063    [6[8[1]][1][1][1]]                                          
  O           10.591594           -2.996538             7.408356            0            -0.604789    [8[6[1][1][1]][1]]                                          
  H           9.736850            -2.844457             7.793575            0             0.406250    [1[8[6]]]                                                   
  H           9.553735            -2.512706             5.712524            0             0.036492    [1[6[8][1][1]]]                                             
  H           11.367821           -2.621097             5.424829            0             0.036492    [1[6[8][1][1]]]                                             
  H           10.509099           -4.115966             5.573732            0             0.036492    [1[6[8][1][1]]]                                             
