12

  C           2.216168            -10.583670            6.792271            0             0.099454    [6[8[1]][1][1][1]]                                          
  O           1.676542            -10.073466            5.612727            0            -0.597823    [8[6[1][1][1]][1]]                                          
  H           2.289929            -10.296612            4.873086            0             0.402573    [1[8[6]]]                                                   
  H           1.920652            -11.635590            6.979439            0             0.031932    [1[6[8][1][1]]]                                             
  H           3.230282            -10.410300            6.926087            0             0.031932    [1[6[8][1][1]]]                                             
  H           1.813010            -10.092693            7.607417            0             0.031932    [1[6[8][1][1]]]                                             
  C          -2.414577            -9.840233             4.373726            1             0.099454    [6[8[1]][1][1][1]]                                          
  O          -2.565059            -10.638349            3.278567            1            -0.597823    [8[6[1][1][1]][1]]                                          
  H          -1.753456            -10.671124            2.788095            1             0.402573    [1[8[6]]]                                                   
  H          -2.990042            -10.192673            5.225289            1             0.031932    [1[6[8][1][1]]]                                             
  H          -1.368952            -9.985903             4.812101            1             0.031932    [1[6[8][1][1]]]                                             
  H          -2.448214            -8.747455             4.203547            1             0.031932    [1[6[8][1][1]]]                                             
