12

  C          -3.521737            -6.032928            -3.997539            0             0.099454    [6[8[1]][1][1][1]]                                          
  O          -3.209134            -4.842496            -3.204906            0            -0.597823    [8[6[1][1][1]][1]]                                          
  H          -3.319984            -4.094860            -3.795784            0             0.402573    [1[8[6]]]                                                   
  H          -3.627151            -6.940647            -3.414398            0             0.031932    [1[6[8][1][1]]]                                             
  H          -4.523750            -5.897630            -4.422226            0             0.031932    [1[6[8][1][1]]]                                             
  H          -2.762533            -6.264531            -4.740990            0             0.031932    [1[6[8][1][1]]]                                             
  C          -0.145492            -9.053850            -3.804364            1             0.099454    [6[8[1]][1][1][1]]                                          
  O          -0.466797            -10.364534           -4.106128            1            -0.597823    [8[6[1][1][1]][1]]                                          
  H           0.295671            -10.843949           -4.484534            1             0.402573    [1[8[6]]]                                                   
  H           0.657148            -8.917143            -3.102344            1             0.031932    [1[6[8][1][1]]]                                             
  H           0.162127            -8.366978            -4.569221            1             0.031932    [1[6[8][1][1]]]                                             
  H          -0.952246            -8.517006            -3.237953            1             0.031932    [1[6[8][1][1]]]                                             
