12

  C          -3.366488             1.354718             8.299496            0             0.099454    [6[8[1]][1][1][1]]                                          
  O          -2.747762             2.580068             8.513952            0            -0.597823    [8[6[1][1][1]][1]]                                          
  H          -2.097212             2.607204             7.804503            0             0.402573    [1[8[6]]]                                                   
  H          -3.091532             0.606645             9.087924            0             0.031932    [1[6[8][1][1]]]                                             
  H          -4.464560             1.385830             8.357553            0             0.031932    [1[6[8][1][1]]]                                             
  H          -3.098089             0.935276             7.304372            0             0.031932    [1[6[8][1][1]]]                                             
  C          -7.213626             3.384994             10.819294           1             0.099454    [6[8[1]][1][1][1]]                                          
  O          -6.871393             4.171338             11.892406           1            -0.597823    [8[6[1][1][1]][1]]                                          
  H          -6.898183             3.456101             12.542300           1             0.402573    [1[8[6]]]                                                   
  H          -6.335732             2.906768             10.264594           1             0.031932    [1[6[8][1][1]]]                                             
  H          -7.908215             2.573688             11.116931           1             0.031932    [1[6[8][1][1]]]                                             
  H          -7.828782             3.967057             10.125404           1             0.031932    [1[6[8][1][1]]]                                             
