12

  C           3.665648            -7.821168            -5.400636            0             0.099454    [6[8[1]][1][1][1]]                                          
  O           2.313230            -7.911947            -5.669289            0            -0.597823    [8[6[1][1][1]][1]]                                          
  H           1.928492            -8.336179            -4.940872            0             0.402573    [1[8[6]]]                                                   
  H           4.116049            -8.827274            -5.247889            0             0.031932    [1[6[8][1][1]]]                                             
  H           4.117865            -7.403982            -6.311332            0             0.031932    [1[6[8][1][1]]]                                             
  H           3.967369            -7.184332            -4.616387            0             0.031932    [1[6[8][1][1]]]                                             
  C           0.830589            -8.804926            -2.774516            1             0.099454    [6[8[1]][1][1][1]]                                          
  O           1.390398            -9.721487            -3.701900            1            -0.597823    [8[6[1][1][1]][1]]                                          
  H           1.712056            -10.463570           -3.258604            1             0.402573    [1[8[6]]]                                                   
  H          -0.082068            -9.226664            -2.275013            1             0.031932    [1[6[8][1][1]]]                                             
  H           1.609103            -8.455367            -1.961482            1             0.031932    [1[6[8][1][1]]]                                             
  H           0.439885            -7.917556            -3.312164            1             0.031932    [1[6[8][1][1]]]                                             
