12

  C           9.121018            -8.002332            -6.658130            0             0.099454    [6[8[1]][1][1][1]]                                          
  O           10.161908           -7.980103            -7.581041            0            -0.597823    [8[6[1][1][1]][1]]                                          
  H           10.228390           -8.853579            -7.970329            0             0.402573    [1[8[6]]]                                                   
  H           8.705024            -7.045005            -6.526222            0             0.031932    [1[6[8][1][1]]]                                             
  H           8.234115            -8.471532            -7.034247            0             0.031932    [1[6[8][1][1]]]                                             
  H           9.419755            -8.306082            -5.708888            0             0.031932    [1[6[8][1][1]]]                                             
  C           7.675457            -6.336189            -10.603416           1             0.099454    [6[8[1]][1][1][1]]                                          
  O           7.603533            -5.665192            -11.832627           1            -0.597823    [8[6[1][1][1]][1]]                                          
  H           7.495016            -6.340691            -12.531110           1             0.402573    [1[8[6]]]                                                   
  H           7.650247            -5.677263            -9.801544            1             0.031932    [1[6[8][1][1]]]                                             
  H           6.791720            -7.005691            -10.409281           1             0.031932    [1[6[8][1][1]]]                                             
  H           8.584671            -6.856974            -10.471076           1             0.031932    [1[6[8][1][1]]]                                             
