12

  C           1.651800             10.215706           -8.233508            0             0.099454    [6[8[1]][1][1][1]]                                          
  O           1.791856             10.275568           -6.868398            0            -0.597823    [8[6[1][1][1]][1]]                                          
  H           0.984907             10.711210           -6.547303            0             0.402573    [1[8[6]]]                                                   
  H           0.706257             10.062585           -8.627706            0             0.031932    [1[6[8][1][1]]]                                             
  H           2.119570             11.031810           -8.745449            0             0.031932    [1[6[8][1][1]]]                                             
  H           2.253994             9.375002            -8.615722            0             0.031932    [1[6[8][1][1]]]                                             
  C           4.971844             8.310376            -7.024136            1             0.099454    [6[8[1]][1][1][1]]                                          
  O           4.012540             8.558436            -6.046264            1            -0.597823    [8[6[1][1][1]][1]]                                          
  H           3.330189             9.085641            -6.525561            1             0.402573    [1[8[6]]]                                                   
  H           5.563598             9.240118            -7.265811            1             0.031932    [1[6[8][1][1]]]                                             
  H           5.697368             7.572420            -6.663549            1             0.031932    [1[6[8][1][1]]]                                             
  H           4.517557             7.945873            -7.973777            1             0.031932    [1[6[8][1][1]]]                                             
