12

  C           6.579677            -4.656054             2.098122            0             0.099454    [6[8[1]][1][1][1]]                                          
  O           6.418017            -5.253259             3.379541            0            -0.597823    [8[6[1][1][1]][1]]                                          
  H           5.507121            -5.599913             3.333520            0             0.402573    [1[8[6]]]                                                   
  H           5.924402            -3.782596             1.864666            0             0.031932    [1[6[8][1][1]]]                                             
  H           7.523478            -4.087973             1.999012            0             0.031932    [1[6[8][1][1]]]                                             
  H           6.439044            -5.427651             1.315982            0             0.031932    [1[6[8][1][1]]]                                             
  C           6.434356            -0.699909             0.170540            1             0.099454    [6[8[1]][1][1][1]]                                          
  O           5.365112            -0.900718            -0.728874            1            -0.597823    [8[6[1][1][1]][1]]                                          
  H           5.747872            -1.539752            -1.360051            1             0.402573    [1[8[6]]]                                                   
  H           7.251423            -0.122090            -0.272129            1             0.031932    [1[6[8][1][1]]]                                             
  H           6.045687            -0.224587             1.058624            1             0.031932    [1[6[8][1][1]]]                                             
  H           6.784626            -1.682548             0.522621            1             0.031932    [1[6[8][1][1]]]                                             
