12

  C           1.228255             8.850175            -3.515345            0             0.099454    [6[8[1]][1][1][1]]                                          
  O           1.191600             8.715200            -2.081027            0            -0.597823    [8[6[1][1][1]][1]]                                          
  H           0.242599             8.844409            -1.860280            0             0.402573    [1[8[6]]]                                                   
  H           1.453714             9.811640            -3.993332            0             0.031932    [1[6[8][1][1]]]                                             
  H           1.787758             7.990946            -3.923253            0             0.031932    [1[6[8][1][1]]]                                             
  H           0.282204             8.617246            -3.914783            0             0.031932    [1[6[8][1][1]]]                                             
  C           4.971844             8.310376            -7.024136            1             0.099454    [6[8[1]][1][1][1]]                                          
  O           4.012540             8.558436            -6.046264            1            -0.597823    [8[6[1][1][1]][1]]                                          
  H           3.330189             9.085641            -6.525561            1             0.402573    [1[8[6]]]                                                   
  H           5.563598             9.240118            -7.265811            1             0.031932    [1[6[8][1][1]]]                                             
  H           5.697368             7.572420            -6.663549            1             0.031932    [1[6[8][1][1]]]                                             
  H           4.517557             7.945873            -7.973777            1             0.031932    [1[6[8][1][1]]]                                             
