12

  C          -6.481891            -7.877271             7.250222            0             0.099454    [6[8[1]][1][1][1]]                                          
  O          -6.198547            -6.565036             6.837370            0            -0.597823    [8[6[1][1][1]][1]]                                          
  H          -6.806889            -6.005382             7.336781            0             0.402573    [1[8[6]]]                                                   
  H          -7.552956            -8.073217             7.112625            0             0.031932    [1[6[8][1][1]]]                                             
  H          -5.784904            -8.580147             6.772301            0             0.031932    [1[6[8][1][1]]]                                             
  H          -6.373916            -7.930089             8.316778            0             0.031932    [1[6[8][1][1]]]                                             
  C          -3.528344            -10.035189            5.147963            1             0.099454    [6[8[1]][1][1][1]]                                          
  O          -4.349282            -10.748182            6.034995            1            -0.597823    [8[6[1][1][1]][1]]                                          
  H          -4.399661            -11.632852            5.680013            1             0.402573    [1[8[6]]]                                                   
  H          -3.695093            -10.267200            4.097978            1             0.031932    [1[6[8][1][1]]]                                             
  H          -3.713790            -8.967588             5.271125            1             0.031932    [1[6[8][1][1]]]                                             
  H          -2.483813            -10.287818            5.330035            1             0.031932    [1[6[8][1][1]]]                                             
