12

  C           1.487376            -0.428665             4.266690            0             0.099454    [6[8[1]][1][1][1]]                                          
  O           2.630056            -0.194025             5.057445            0            -0.597823    [8[6[1][1][1]][1]]                                          
  H           2.762876            -0.876611             5.745413            0             0.402573    [1[8[6]]]                                                   
  H           1.308714             0.285588             3.519412            0             0.031932    [1[6[8][1][1]]]                                             
  H           1.633911            -1.323911             3.744331            0             0.031932    [1[6[8][1][1]]]                                             
  H           0.553844            -0.624710             4.835763            0             0.031932    [1[6[8][1][1]]]                                             
  C          -2.747217            -1.439285             7.215734            1             0.099454    [6[8[1]][1][1][1]]                                          
  O          -3.661565            -2.257749             7.941439            1            -0.597823    [8[6[1][1][1]][1]]                                          
  H          -4.087411            -2.914877             7.304557            1             0.402573    [1[8[6]]]                                                   
  H          -1.744539            -1.863552             7.165893            1             0.031932    [1[6[8][1][1]]]                                             
  H          -3.187766            -1.140830             6.244377            1             0.031932    [1[6[8][1][1]]]                                             
  H          -2.642980            -0.476722             7.720025            1             0.031932    [1[6[8][1][1]]]                                             
