12

  C           9.472084            -11.337148           -8.910433            0             0.099454    [6[8[1]][1][1][1]]                                          
  O           8.816187            -10.835881           -7.791333            0            -0.597823    [8[6[1][1][1]][1]]                                          
  H           8.235912            -10.104401           -8.032040            0             0.402573    [1[8[6]]]                                                   
  H           10.273137           -11.995235           -8.539505            0             0.031932    [1[6[8][1][1]]]                                             
  H           8.851538            -11.855969           -9.677426            0             0.031932    [1[6[8][1][1]]]                                             
  H           10.003461           -10.531981           -9.493681            0             0.031932    [1[6[8][1][1]]]                                             
  C           5.350701            -9.221454            -8.109275            1             0.099454    [6[8[1]][1][1][1]]                                          
  O           6.635878            -9.249163            -8.663243            1            -0.597823    [8[6[1][1][1]][1]]                                          
  H           6.555255            -9.308702            -9.601032            1             0.402573    [1[8[6]]]                                                   
  H           5.236071            -8.268679            -7.627305            1             0.031932    [1[6[8][1][1]]]                                             
  H           4.513385            -9.340610            -8.831283            1             0.031932    [1[6[8][1][1]]]                                             
  H           5.364953            -10.001171           -7.316349            1             0.031932    [1[6[8][1][1]]]                                             
