12

  C          -2.030269            -0.860094             4.701773            0             0.099454    [6[8[1]][1][1][1]]                                          
  O          -1.560259            -1.727254             3.739333            0            -0.597823    [8[6[1][1][1]][1]]                                          
  H          -2.090679            -1.511563             2.970343            0             0.402573    [1[8[6]]]                                                   
  H          -3.112571            -0.850576             4.889874            0             0.031932    [1[6[8][1][1]]]                                             
  H          -1.502015            -1.055243             5.669747            0             0.031932    [1[6[8][1][1]]]                                             
  H          -1.782010             0.256352             4.478952            0             0.031932    [1[6[8][1][1]]]                                             
  C          -5.166520            -2.157854             5.731922            1             0.099454    [6[8[1]][1][1][1]]                                          
  O          -4.352424            -2.878573             4.845293            1            -0.597823    [8[6[1][1][1]][1]]                                          
  H          -4.531012            -2.479481             4.001761            1             0.402573    [1[8[6]]]                                                   
  H          -6.255409            -2.274834             5.542018            1             0.031932    [1[6[8][1][1]]]                                             
  H          -4.978157            -2.425634             6.797351            1             0.031932    [1[6[8][1][1]]]                                             
  H          -5.056658            -1.138531             5.729317            1             0.031932    [1[6[8][1][1]]]                                             
