12

  C          -8.834874             3.164755            -6.942499            0             0.099454    [6[8[1]][1][1][1]]                                          
  O          -8.510381             4.027767            -5.913860            0            -0.597823    [8[6[1][1][1]][1]]                                          
  H          -7.614563             3.811434            -5.733662            0             0.402573    [1[8[6]]]                                                   
  H          -9.347348             2.242143            -6.621761            0             0.031932    [1[6[8][1][1]]]                                             
  H          -9.521020             3.604805            -7.657690            0             0.031932    [1[6[8][1][1]]]                                             
  H          -7.931253             2.856065            -7.511476            0             0.031932    [1[6[8][1][1]]]                                             
  C          -5.629599             2.838499            -4.257140            1             0.099454    [6[8[1]][1][1][1]]                                          
  O          -6.149862             4.151956            -4.511084            1            -0.597823    [8[6[1][1][1]][1]]                                          
  H          -6.244268             4.592923            -3.678162            1             0.402573    [1[8[6]]]                                                   
  H          -4.527856             2.807374            -4.087594            1             0.031932    [1[6[8][1][1]]]                                             
  H          -5.985739             2.538664            -3.276288            1             0.031932    [1[6[8][1][1]]]                                             
  H          -5.935220             2.070424            -4.993791            1             0.031932    [1[6[8][1][1]]]                                             
