6

  C           3.120161             1.252736            -2.835892            0             0.089063    [6[8[1]][1][1][1]]                                          
  O           4.052023             0.991522            -1.740066            0            -0.604789    [8[6[1][1][1]][1]]                                          
  H           3.891793             1.582260            -1.027765            0             0.406250    [1[8[6]]]                                                   
  H           3.470497             2.020385            -3.573038            0             0.036492    [1[6[8][1][1]]]                                             
  H           2.874990             0.282014            -3.352896            0             0.036492    [1[6[8][1][1]]]                                             
  H           2.123720             1.623176            -2.408365            0             0.036492    [1[6[8][1][1]]]                                             
