12

  C          -10.687114            6.522365             10.912415           0             0.099454    [6[8[1]][1][1][1]]                                          
  O          -10.958699            6.462439             9.495698            0            -0.597823    [8[6[1][1][1]][1]]                                          
  H          -11.915597            6.359913             9.432105            0             0.402573    [1[8[6]]]                                                   
  H          -9.694428             7.019205             11.201935           0             0.031932    [1[6[8][1][1]]]                                             
  H          -11.404788            6.987728             11.574306           0             0.031932    [1[6[8][1][1]]]                                             
  H          -10.535777            5.492168             11.351259           0             0.031932    [1[6[8][1][1]]]                                             
  C          -6.849327             5.900946             10.276763           1             0.099454    [6[8[1]][1][1][1]]                                          
  O          -5.890227             5.057906             9.653911            1            -0.597823    [8[6[1][1][1]][1]]                                          
  H          -5.917973             4.155875             10.080686           1             0.402573    [1[8[6]]]                                                   
  H          -6.510289             6.982825             10.201999           1             0.031932    [1[6[8][1][1]]]                                             
  H          -7.892018             5.787008             9.886202            1             0.031932    [1[6[8][1][1]]]                                             
  H          -6.863436             5.714866             11.335053           1             0.031932    [1[6[8][1][1]]]                                             
