12

  C           8.629797             8.547878             8.806274            0             0.099454    [6[8[1]][1][1][1]]                                          
  O           8.727650             7.489372             9.777322            0            -0.597823    [8[6[1][1][1]][1]]                                          
  H           8.906374             7.894992             10.650402           0             0.402573    [1[8[6]]]                                                   
  H           9.165527             9.433401             9.047837            0             0.031932    [1[6[8][1][1]]]                                             
  H           8.882979             8.196418             7.782462            0             0.031932    [1[6[8][1][1]]]                                             
  H           7.598564             8.894795             8.815134            0             0.031932    [1[6[8][1][1]]]                                             
  C           6.831958             6.294291             6.415026            1             0.099454    [6[8[1]][1][1][1]]                                          
  O           7.505123             6.261990             5.193583            1            -0.597823    [8[6[1][1][1]][1]]                                          
  H           8.148449             6.962906             5.154953            1             0.402573    [1[8[6]]]                                                   
  H           7.482049             6.064620             7.250410            1             0.031932    [1[6[8][1][1]]]                                             
  H           6.397184             7.314095             6.694785            1             0.031932    [1[6[8][1][1]]]                                             
  H           5.952161             5.499594             6.404224            1             0.031932    [1[6[8][1][1]]]                                             
