12

  C          -8.524424            -8.551857            -7.483804            0             0.099454    [6[8[1]][1][1][1]]                                          
  O          -9.010956            -9.552221            -6.626090            0            -0.597823    [8[6[1][1][1]][1]]                                          
  H          -9.770529            -9.256232            -6.136644            0             0.402573    [1[8[6]]]                                                   
  H          -7.877334            -8.876806            -8.253957            0             0.031932    [1[6[8][1][1]]]                                             
  H          -9.389126            -8.178034            -7.915574            0             0.031932    [1[6[8][1][1]]]                                             
  H          -7.935626            -7.708410            -7.024587            0             0.031932    [1[6[8][1][1]]]                                             
  C          -8.729305            -8.214980            -3.029853            1             0.099454    [6[8[1]][1][1][1]]                                          
  O          -8.095846            -7.329674            -2.136110            1            -0.597823    [8[6[1][1][1]][1]]                                          
  H          -8.783612            -7.055352            -1.455014            1             0.402573    [1[8[6]]]                                                   
  H          -9.086881            -9.162493            -2.596128            1             0.031932    [1[6[8][1][1]]]                                             
  H          -9.593081            -7.776695            -3.531411            1             0.031932    [1[6[8][1][1]]]                                             
  H          -7.946672            -8.537519            -3.705466            1             0.031932    [1[6[8][1][1]]]                                             
