12

  C           4.561635            -10.009597            4.847881            0             0.099454    [6[8[1]][1][1][1]]                                          
  O           4.842641            -8.640920             5.290700            0            -0.597823    [8[6[1][1][1]][1]]                                          
  H           4.936777            -8.693870             6.258719            0             0.402573    [1[8[6]]]                                                   
  H           4.210696            -9.993841             3.748569            0             0.031932    [1[6[8][1][1]]]                                             
  H           5.367545            -10.701267            4.982666            0             0.031932    [1[6[8][1][1]]]                                             
  H           3.735903            -10.384981            5.413469            0             0.031932    [1[6[8][1][1]]]                                             
  C           2.252523            -6.673013             5.579693            1             0.099454    [6[8[1]][1][1][1]]                                          
  O           2.745078            -6.831900             4.302959            1            -0.597823    [8[6[1][1][1]][1]]                                          
  H           3.490369            -7.395111             4.429140            1             0.402573    [1[8[6]]]                                                   
  H           2.997324            -6.049581             6.236636            1             0.031932    [1[6[8][1][1]]]                                             
  H           1.278632            -6.080374             5.543830            1             0.031932    [1[6[8][1][1]]]                                             
  H           2.074676            -7.619239             6.189607            1             0.031932    [1[6[8][1][1]]]                                             
