12

  C          -7.366661            -2.963687             2.761216            0             0.099454    [6[8[1]][1][1][1]]                                          
  O          -7.991004            -1.877299             2.184801            0            -0.597823    [8[6[1][1][1]][1]]                                          
  H          -8.630948            -1.490112             2.772157            0             0.402573    [1[8[6]]]                                                   
  H          -8.031490            -3.775481             2.924278            0             0.031932    [1[6[8][1][1]]]                                             
  H          -6.620792            -3.428823             2.136483            0             0.031932    [1[6[8][1][1]]]                                             
  H          -6.995310            -2.677469             3.725112            0             0.031932    [1[6[8][1][1]]]                                             
  C          -8.948701            -0.439402             5.987862            1             0.099454    [6[8[1]][1][1][1]]                                          
  O          -9.115364            -0.692188             4.565162            1            -0.597823    [8[6[1][1][1]][1]]                                          
  H          -9.844506            -1.290664             4.538672            1             0.402573    [1[8[6]]]                                                   
  H          -9.350161             0.522866             6.290320            1             0.031932    [1[6[8][1][1]]]                                             
  H          -9.377751            -1.276286             6.651318            1             0.031932    [1[6[8][1][1]]]                                             
  H          -7.851956            -0.349181             6.148207            1             0.031932    [1[6[8][1][1]]]                                             
