12

  C           5.213601            -6.424230             1.445439            0             0.099454    [6[8[1]][1][1][1]]                                          
  O           5.630218            -5.208946             2.075847            0            -0.597823    [8[6[1][1][1]][1]]                                          
  H           5.563530            -4.576802             1.354313            0             0.402573    [1[8[6]]]                                                   
  H           5.329758            -7.331916             2.140380            0             0.031932    [1[6[8][1][1]]]                                             
  H           4.144093            -6.377885             1.182249            0             0.031932    [1[6[8][1][1]]]                                             
  H           5.866397            -6.714165             0.524728            0             0.031932    [1[6[8][1][1]]]                                             
  C           4.754695            -8.150541             5.270730            1             0.099454    [6[8[1]][1][1][1]]                                          
  O           4.104975            -9.335210             5.323063            1            -0.597823    [8[6[1][1][1]][1]]                                          
  H           3.952674            -9.690733             4.421511            1             0.402573    [1[8[6]]]                                                   
  H           5.553104            -8.139365             4.569096            1             0.031932    [1[6[8][1][1]]]                                             
  H           4.058127            -7.356867             4.934805            1             0.031932    [1[6[8][1][1]]]                                             
  H           5.126273            -7.952244             6.256845            1             0.031932    [1[6[8][1][1]]]                                             
