12

  C           3.233414            -3.571402             3.480505            0             0.099454    [6[8[1]][1][1][1]]                                          
  O           2.255676            -2.570167             3.219103            0            -0.597823    [8[6[1][1][1]][1]]                                          
  H           1.566001            -2.787145             3.844910            0             0.402573    [1[8[6]]]                                                   
  H           2.766447            -4.558397             3.518261            0             0.031932    [1[6[8][1][1]]]                                             
  H           4.083400            -3.498807             2.869667            0             0.031932    [1[6[8][1][1]]]                                             
  H           3.649298            -3.340378             4.517966            0             0.031932    [1[6[8][1][1]]]                                             
  C           6.699430            -5.657267            -0.260360            1             0.099454    [6[8[1]][1][1][1]]                                          
  O           6.373375            -4.714772             0.735711            1            -0.597823    [8[6[1][1][1]][1]]                                          
  H           6.683855            -5.044267             1.572619            1             0.402573    [1[8[6]]]                                                   
  H           6.083675            -5.429119            -1.111410            1             0.031932    [1[6[8][1][1]]]                                             
  H           7.752837            -5.548398            -0.640329            1             0.031932    [1[6[8][1][1]]]                                             
  H           6.603195            -6.639985             0.122955            1             0.031932    [1[6[8][1][1]]]                                             
