12

  C           3.179179            -10.939931            3.485136            0             0.099454    [6[8[1]][1][1][1]]                                          
  O           3.246952            -11.712566            2.378431            0            -0.597823    [8[6[1][1][1]][1]]                                          
  H           4.017949            -11.518141            1.825070            0             0.402573    [1[8[6]]]                                                   
  H           3.999599            -11.078683            4.177273            0             0.031932    [1[6[8][1][1]]]                                             
  H           3.185205            -9.884947             3.229160            0             0.031932    [1[6[8][1][1]]]                                             
  H           2.258283            -11.102446            4.065731            0             0.031932    [1[6[8][1][1]]]                                             
  C           1.902938            -10.183330           -0.242659            1             0.099454    [6[8[1]][1][1][1]]                                          
  O           1.823261            -10.422519           -1.562865            1            -0.597823    [8[6[1][1][1]][1]]                                          
  H           2.198276            -9.705915            -2.126604            1             0.402573    [1[8[6]]]                                                   
  H           1.611273            -9.195077            -0.089689            1             0.031932    [1[6[8][1][1]]]                                             
  H           1.299524            -10.887221            0.445559            1             0.031932    [1[6[8][1][1]]]                                             
  H           2.936813            -10.214701            0.098518            1             0.031932    [1[6[8][1][1]]]                                             
