12

  C           7.095750             3.934989             5.712976            0             0.099454    [6[8[1]][1][1][1]]                                          
  O           8.233398             3.019336             5.783510            0            -0.597823    [8[6[1][1][1]][1]]                                          
  H           8.730311             3.165655             4.956165            0             0.402573    [1[8[6]]]                                                   
  H           6.340234             3.723684             6.452433            0             0.031932    [1[6[8][1][1]]]                                             
  H           7.425371             4.894638             6.015371            0             0.031932    [1[6[8][1][1]]]                                             
  H           6.636750             3.988568             4.765022            0             0.031932    [1[6[8][1][1]]]                                             
  C           7.069487             6.948817             1.348319            1             0.099454    [6[8[1]][1][1][1]]                                          
  O           6.833436             7.462442             0.067141            1            -0.597823    [8[6[1][1][1]][1]]                                          
  H           6.469724             6.786522            -0.512093            1             0.402573    [1[8[6]]]                                                   
  H           6.543788             6.020128             1.325691            1             0.031932    [1[6[8][1][1]]]                                             
  H           8.106300             6.629288             1.569079            1             0.031932    [1[6[8][1][1]]]                                             
  H           6.689718             7.616708             2.082214            1             0.031932    [1[6[8][1][1]]]                                             
