12

  C          -0.644259            -10.288811           -0.613577            0             0.099454    [6[8[1]][1][1][1]]                                          
  O           0.403820            -9.855791             0.193845            0            -0.597823    [8[6[1][1][1]][1]]                                          
  H           0.055486            -9.356534             0.947444            0             0.402573    [1[8[6]]]                                                   
  H          -1.065645            -11.179136           -0.133979            0             0.031932    [1[6[8][1][1]]]                                             
  H          -1.357217            -9.505382            -0.921732            0             0.031932    [1[6[8][1][1]]]                                             
  H          -0.289226            -10.785823           -1.502527            0             0.031932    [1[6[8][1][1]]]                                             
  C           2.451181            -9.299457             3.753158            1             0.099454    [6[8[1]][1][1][1]]                                          
  O           3.830511            -9.386070             3.338447            1            -0.597823    [8[6[1][1][1]][1]]                                          
  H           3.817408            -9.446326             2.382565            1             0.402573    [1[8[6]]]                                                   
  H           1.768621            -8.985972             2.933853            1             0.031932    [1[6[8][1][1]]]                                             
  H           2.083960            -10.300967            4.012013            1             0.031932    [1[6[8][1][1]]]                                             
  H           2.255479            -8.550594             4.616617            1             0.031932    [1[6[8][1][1]]]                                             
