12

  C          -5.166520            -2.157854             5.731922            0             0.099454    [6[8[1]][1][1][1]]                                          
  O          -4.352424            -2.878573             4.845293            0            -0.597823    [8[6[1][1][1]][1]]                                          
  H          -4.531012            -2.479481             4.001761            0             0.402573    [1[8[6]]]                                                   
  H          -6.255409            -2.274834             5.542018            0             0.031932    [1[6[8][1][1]]]                                             
  H          -4.978157            -2.425634             6.797351            0             0.031932    [1[6[8][1][1]]]                                             
  H          -5.056658            -1.138531             5.729317            0             0.031932    [1[6[8][1][1]]]                                             
  C          -5.099899            -0.314163             2.273971            1             0.099454    [6[8[1]][1][1][1]]                                          
  O          -4.169031            -1.341223             2.297468            1            -0.597823    [8[6[1][1][1]][1]]                                          
  H          -3.967029            -1.630792             1.383608            1             0.402573    [1[8[6]]]                                                   
  H          -4.650917             0.664407             1.983989            1             0.031932    [1[6[8][1][1]]]                                             
  H          -5.904849            -0.446509             1.523370            1             0.031932    [1[6[8][1][1]]]                                             
  H          -5.640213            -0.184676             3.176502            1             0.031932    [1[6[8][1][1]]]                                             
