12

  C          -8.448119             2.442185            -5.118233            0             0.099454    [6[8[1]][1][1][1]]                                          
  O          -7.831945             1.753476            -4.059607            0            -0.597823    [8[6[1][1][1]][1]]                                          
  H          -8.251878             0.862124            -3.916511            0             0.402573    [1[8[6]]]                                                   
  H          -9.518605             2.289483            -5.032777            0             0.031932    [1[6[8][1][1]]]                                             
  H          -8.197066             3.464053            -5.152794            0             0.031932    [1[6[8][1][1]]]                                             
  H          -8.176135             2.038059            -6.035437            0             0.031932    [1[6[8][1][1]]]                                             
  C          -9.370355             2.982421            -1.130286            1             0.099454    [6[8[1]][1][1][1]]                                          
  O          -8.060831             2.716700            -0.738364            1            -0.597823    [8[6[1][1][1]][1]]                                          
  H          -7.797640             1.912203            -1.195210            1             0.402573    [1[8[6]]]                                                   
  H          -9.629942             2.462840            -2.071195            1             0.031932    [1[6[8][1][1]]]                                             
  H          -10.114855            2.628072            -0.451375            1             0.031932    [1[6[8][1][1]]]                                             
  H          -9.582202             4.031527            -1.361701            1             0.031932    [1[6[8][1][1]]]                                             
