12

  C          -4.783363             4.112619            -2.570429            0             0.099454    [6[8[1]][1][1][1]]                                          
  O          -6.170966             4.051347            -2.271669            0            -0.597823    [8[6[1][1][1]][1]]                                          
  H          -6.396381             3.112215            -2.297182            0             0.402573    [1[8[6]]]                                                   
  H          -4.677063             4.150604            -3.633048            0             0.031932    [1[6[8][1][1]]]                                             
  H          -4.392991             5.100541            -2.206898            0             0.031932    [1[6[8][1][1]]]                                             
  H          -4.210136             3.298748            -2.150329            0             0.031932    [1[6[8][1][1]]]                                             
  C          -5.235882             3.625782             3.629223            1             0.099454    [6[8[1]][1][1][1]]                                          
  O          -5.157352             3.575601             2.260142            1            -0.597823    [8[6[1][1][1]][1]]                                          
  H          -5.339816             4.474139             1.905838            1             0.402573    [1[8[6]]]                                                   
  H          -4.746919             2.763487             4.126884            1             0.031932    [1[6[8][1][1]]]                                             
  H          -4.722941             4.481456             4.022618            1             0.031932    [1[6[8][1][1]]]                                             
  H          -6.300535             3.639498             3.943306            1             0.031932    [1[6[8][1][1]]]                                             
