12

  C          -3.362429            -10.624010            2.447087            0             0.099454    [6[8[1]][1][1][1]]                                          
  O          -2.114326            -10.397029            1.861967            0            -0.597823    [8[6[1][1][1]][1]]                                          
  H          -1.490704            -10.338248            2.606622            0             0.402573    [1[8[6]]]                                                   
  H          -3.628185            -9.688720             2.997938            0             0.031932    [1[6[8][1][1]]]                                             
  H          -4.220479            -10.901537            1.786681            0             0.031932    [1[6[8][1][1]]]                                             
  H          -3.388705            -11.407834            3.232924            0             0.031932    [1[6[8][1][1]]]                                             
  C          -1.471844            -7.273723             0.057177            1             0.099454    [6[8[1]][1][1][1]]                                          
  O          -2.592648            -7.401229             0.927050            1            -0.597823    [8[6[1][1][1]][1]]                                          
  H          -2.462836            -8.147191             1.506804            1             0.402573    [1[8[6]]]                                                   
  H          -0.583023            -6.910695             0.610701            1             0.031932    [1[6[8][1][1]]]                                             
  H          -1.283247            -8.174641            -0.447536            1             0.031932    [1[6[8][1][1]]]                                             
  H          -1.621950            -6.560480            -0.744089            1             0.031932    [1[6[8][1][1]]]                                             
