12

  C          -0.644259            -10.288811           -0.613577            0             0.099454    [6[8[1]][1][1][1]]                                          
  O           0.403820            -9.855791             0.193845            0            -0.597823    [8[6[1][1][1]][1]]                                          
  H           0.055486            -9.356534             0.947444            0             0.402573    [1[8[6]]]                                                   
  H          -1.065645            -11.179136           -0.133979            0             0.031932    [1[6[8][1][1]]]                                             
  H          -1.357217            -9.505382            -0.921732            0             0.031932    [1[6[8][1][1]]]                                             
  H          -0.289226            -10.785823           -1.502527            0             0.031932    [1[6[8][1][1]]]                                             
  C          -4.903874            -9.442278            -0.677737            1             0.099454    [6[8[1]][1][1][1]]                                          
  O          -3.989815            -9.223129             0.357628            1            -0.597823    [8[6[1][1][1]][1]]                                          
  H          -4.262222            -9.680427             1.180958            1             0.402573    [1[8[6]]]                                                   
  H          -5.967884            -9.465559            -0.415941            1             0.031932    [1[6[8][1][1]]]                                             
  H          -4.794855            -8.731898            -1.421318            1             0.031932    [1[6[8][1][1]]]                                             
  H          -4.878456            -10.406002           -1.126017            1             0.031932    [1[6[8][1][1]]]                                             
