12

  C          -9.951513            -10.281393            7.497342            0             0.099454    [6[8[1]][1][1][1]]                                          
  O          -9.276138            -9.266810             6.843790            0            -0.597823    [8[6[1][1][1]][1]]                                          
  H          -8.815560            -8.762262             7.546139            0             0.402573    [1[8[6]]]                                                   
  H          -11.039121           -10.246626            7.273744            0             0.031932    [1[6[8][1][1]]]                                             
  H          -9.426906            -11.213108            7.173774            0             0.031932    [1[6[8][1][1]]]                                             
  H          -9.783525            -10.291402            8.602816            0             0.031932    [1[6[8][1][1]]]                                             
  C          -6.519036            -7.512564             9.177170            1             0.099454    [6[8[1]][1][1][1]]                                          
  O          -7.307728            -7.397217             8.009092            1            -0.597823    [8[6[1][1][1]][1]]                                          
  H          -7.724737            -6.538943             8.143415            1             0.402573    [1[8[6]]]                                                   
  H          -6.581418            -8.454105             9.709755            1             0.031932    [1[6[8][1][1]]]                                             
  H          -5.418856            -7.311625             8.858509            1             0.031932    [1[6[8][1][1]]]                                             
  H          -6.842534            -6.728893             9.824663            1             0.031932    [1[6[8][1][1]]]                                             
