6
Coordinates from ORCA-job 3_geo_opt
  C   3.01112771713369     -1.18093823552784      0.59847734221861
  O   4.39489035601976     -1.12804203201895      0.87433650382736
  H   4.77230545004610     -0.37898204764273      0.41250750120822
  H   2.80629487468044     -1.31896999831754     -0.46936119402283
  H   2.61135524067507     -2.04026457628123      1.13584052875789
  H   2.48463436144494     -0.28450811021171      0.94562131801075
