6
Indices: 0 1 2 3 4 5
C             3.01111157455875    -1.18090463481345     0.59845272530732    [6[8[1]][1][1][1]]
O             4.39486889284546    -1.12804252716681     0.87434658658249    [8[6[1][1][1]][1]]
H             4.77239200390964    -0.37901438838815     0.41253218420349    [1[8[6]]]
H             2.80623827650867    -1.31897236102244    -0.46938874646274    [1[6[8][1][1]]]
H             2.61143605503377    -2.04027246256833     1.13585928766638    [1[6[8][1][1]]]
H             2.48456119319842    -0.28449860132189     0.94561980486377    [1[6[8][1][1]]]
