12

  C           0.729532             5.280987             0.792221            0             0.099454    [6[8[1]][1][1][1]]                                          
  O           0.011848             4.968392            -0.373084            0            -0.597823    [8[6[1][1][1]][1]]                                          
  H          -0.194236             5.859441            -0.599549            0             0.402573    [1[8[6]]]                                                   
  H           1.347677             4.466694             1.117791            0             0.031932    [1[6[8][1][1]]]                                             
  H           1.488634             6.100130             0.576506            0             0.031932    [1[6[8][1][1]]]                                             
  H          -0.035568             5.478909             1.575330            0             0.031932    [1[6[8][1][1]]]                                             
  C           3.721256             2.865454             0.278842            1             0.099454    [6[8[1]][1][1][1]]                                          
  O           3.810652             4.224513             0.718855            1            -0.597823    [8[6[1][1][1]][1]]                                          
  H           3.847158             4.251311             1.654711            1             0.402573    [1[8[6]]]                                                   
  H           4.630489             2.337793             0.330650            1             0.031932    [1[6[8][1][1]]]                                             
  H           3.118835             2.213713             0.975832            1             0.031932    [1[6[8][1][1]]]                                             
  H           3.309772             2.784025            -0.718189            1             0.031932    [1[6[8][1][1]]]                                             
