12

  C          -0.476332             5.228080            -3.863871            0             0.099454    [6[8[1]][1][1][1]]                                          
  O           0.558869             4.308490            -3.545075            0            -0.597823    [8[6[1][1][1]][1]]                                          
  H           0.259840             3.888630            -2.740243            0             0.402573    [1[8[6]]]                                                   
  H          -0.393640             5.740900            -4.847753            0             0.031932    [1[6[8][1][1]]]                                             
  H          -1.548750             4.885884            -3.895985            0             0.031932    [1[6[8][1][1]]]                                             
  H          -0.448631             6.086702            -3.136892            0             0.031932    [1[6[8][1][1]]]                                             
  C           0.717877             3.743836             0.867789            1             0.099454    [6[8[1]][1][1][1]]                                          
  O           0.164363             4.019188            -0.425646            1            -0.597823    [8[6[1][1][1]][1]]                                          
  H          -0.707830             4.373202            -0.283996            1             0.402573    [1[8[6]]]                                                   
  H           0.209102             2.871142             1.298025            1             0.031932    [1[6[8][1][1]]]                                             
  H           1.781979             3.422874             0.875334            1             0.031932    [1[6[8][1][1]]]                                             
  H           0.556332             4.543657             1.505800            1             0.031932    [1[6[8][1][1]]]                                             
