12

  C          -4.441860             0.252273            -10.388572           0             0.099454    [6[8[1]][1][1][1]]                                          
  O          -5.831980             0.272758            -10.110588           0            -0.597823    [8[6[1][1][1]][1]]                                          
  H          -6.199616             0.251479            -11.006176           0             0.402573    [1[8[6]]]                                                   
  H          -4.139284             1.101493            -11.007962           0             0.031932    [1[6[8][1][1]]]                                             
  H          -3.881177             0.211888            -9.421861            0             0.031932    [1[6[8][1][1]]]                                             
  H          -4.225145            -0.703041            -10.844103           0             0.031932    [1[6[8][1][1]]]                                             
  C          -6.945636             3.312507            -8.402463            1             0.099454    [6[8[1]][1][1][1]]                                          
  O          -6.953330             2.354367            -7.433523            1            -0.597823    [8[6[1][1][1]][1]]                                          
  H          -6.634259             1.523126            -7.842062            1             0.402573    [1[8[6]]]                                                   
  H          -7.547421             3.051407            -9.268377            1             0.031932    [1[6[8][1][1]]]                                             
  H          -7.182945             4.348131            -8.049637            1             0.031932    [1[6[8][1][1]]]                                             
  H          -5.994893             3.351768            -8.844000            1             0.031932    [1[6[8][1][1]]]                                             
