12

  C          -4.905139             5.262568            -10.301868           0             0.099454    [6[8[1]][1][1][1]]                                          
  O          -4.333922             5.021783            -9.019390            0            -0.597823    [8[6[1][1][1]][1]]                                          
  H          -4.942635             5.445550            -8.437080            0             0.402573    [1[8[6]]]                                                   
  H          -4.087589             5.285542            -11.069867           0             0.031932    [1[6[8][1][1]]]                                             
  H          -5.760049             4.649201            -10.628340           0             0.031932    [1[6[8][1][1]]]                                             
  H          -5.338715             6.228068            -10.267397           0             0.031932    [1[6[8][1][1]]]                                             
  C          -7.360046             7.106617            -6.792917            1             0.099454    [6[8[1]][1][1][1]]                                          
  O          -6.498099             6.228392            -7.526867            1            -0.597823    [8[6[1][1][1]][1]]                                          
  H          -6.779358             5.342378            -7.266171            1             0.402573    [1[8[6]]]                                                   
  H          -7.479947             8.148388            -7.126850            1             0.031932    [1[6[8][1][1]]]                                             
  H          -8.260560             6.529696            -6.851699            1             0.031932    [1[6[8][1][1]]]                                             
  H          -7.000143             7.184007            -5.732038            1             0.031932    [1[6[8][1][1]]]                                             
