12

  C           1.882657            -5.473259            -4.311445            0             0.099454    [6[8[1]][1][1][1]]                                          
  O           1.200089            -6.616802            -4.829966            0            -0.597823    [8[6[1][1][1]][1]]                                          
  H           0.588911            -6.281126            -5.540718            0             0.402573    [1[8[6]]]                                                   
  H           2.877696            -5.712606            -3.843402            0             0.031932    [1[6[8][1][1]]]                                             
  H           2.170245            -4.752331            -5.142988            0             0.031932    [1[6[8][1][1]]]                                             
  H           1.250145            -4.869591            -3.657311            0             0.031932    [1[6[8][1][1]]]                                             
  C           0.745206            -3.975291            -0.579764            1             0.099454    [6[8[1]][1][1][1]]                                          
  O           0.307130            -2.700104            -0.591971            1            -0.597823    [8[6[1][1][1]][1]]                                          
  H           0.261849            -2.321639             0.278129            1             0.402573    [1[8[6]]]                                                   
  H           1.456053            -4.077456             0.239534            1             0.031932    [1[6[8][1][1]]]                                             
  H          -0.000700            -4.631247            -0.176744            1             0.031932    [1[6[8][1][1]]]                                             
  H           1.118313            -4.411004            -1.534896            1             0.031932    [1[6[8][1][1]]]                                             
