12

  C           10.099755           -8.391832             7.426089            0             0.099454    [6[8[1]][1][1][1]]                                          
  O           8.932273            -9.123837             7.036020            0            -0.597823    [8[6[1][1][1]][1]]                                          
  H           9.240936            -10.078565            7.004083            0             0.402573    [1[8[6]]]                                                   
  H           10.500209           -8.720719             8.378348            0             0.031932    [1[6[8][1][1]]]                                             
  H           10.929111           -8.689775             6.786376            0             0.031932    [1[6[8][1][1]]]                                             
  H           9.978572            -7.339789             7.447551            0             0.031932    [1[6[8][1][1]]]                                             
  C           6.029280            -9.175350             9.917710            1             0.099454    [6[8[1]][1][1][1]]                                          
  O           7.212876            -8.355816             9.850832            1            -0.597823    [8[6[1][1][1]][1]]                                          
  H           7.738320            -8.490723             9.042693            1             0.402573    [1[8[6]]]                                                   
  H           6.303231            -10.242801            9.700826            1             0.031932    [1[6[8][1][1]]]                                             
  H           5.373470            -9.245646             10.809039           1             0.031932    [1[6[8][1][1]]]                                             
  H           5.365920            -8.959489             9.043971            1             0.031932    [1[6[8][1][1]]]                                             
