12

  C           9.510002             3.753170            -5.325528            0             0.099454    [6[8[1]][1][1][1]]                                          
  O           9.876401             4.225670            -4.068210            0            -0.597823    [8[6[1][1][1]][1]]                                          
  H           10.364098            5.018810            -4.265636            0             0.402573    [1[8[6]]]                                                   
  H           8.978419             2.857762            -5.197583            0             0.031932    [1[6[8][1][1]]]                                             
  H           8.779346             4.325251            -5.874902            0             0.031932    [1[6[8][1][1]]]                                             
  H           10.363160            3.582555            -6.031037            0             0.031932    [1[6[8][1][1]]]                                             
  C           10.740478            4.157672            -9.106807            1             0.099454    [6[8[1]][1][1][1]]                                          
  O           10.213811            3.667993            -10.312041           1            -0.597823    [8[6[1][1][1]][1]]                                          
  H           10.463433            4.278892            -10.993310           1             0.402573    [1[8[6]]]                                                   
  H           10.349970            5.182423            -8.820114            1             0.031932    [1[6[8][1][1]]]                                             
  H           10.466377            3.546653            -8.257583            1             0.031932    [1[6[8][1][1]]]                                             
  H           11.892256            4.233591            -9.176246            1             0.031932    [1[6[8][1][1]]]                                             
