12

  C          -2.315231            -6.857830             0.307560            0             0.099454    [6[8[1]][1][1][1]]                                          
  O          -2.542945            -5.554965            -0.144974            0            -0.597823    [8[6[1][1][1]][1]]                                          
  H          -1.707298            -5.106445            -0.070544            0             0.402573    [1[8[6]]]                                                   
  H          -1.393169            -7.004785             0.903639            0             0.031932    [1[6[8][1][1]]]                                             
  H          -3.215109            -7.202972             0.945529            0             0.031932    [1[6[8][1][1]]]                                             
  H          -2.260062            -7.423079            -0.631188            0             0.031932    [1[6[8][1][1]]]                                             
  C          -5.848510            -5.431623             0.742106            1             0.099454    [6[8[1]][1][1][1]]                                          
  O          -4.870994            -4.382988             0.904018            1            -0.597823    [8[6[1][1][1]][1]]                                          
  H          -4.073636            -4.629381             0.480032            1             0.402573    [1[8[6]]]                                                   
  H          -5.482138            -6.449329             1.001130            1             0.031932    [1[6[8][1][1]]]                                             
  H          -6.796003            -5.307281             1.301016            1             0.031932    [1[6[8][1][1]]]                                             
  H          -6.195283            -5.436380            -0.241029            1             0.031932    [1[6[8][1][1]]]                                             
