12

  C           5.079205             10.088721            1.155748            0             0.099454    [6[8[1]][1][1][1]]                                          
  O           4.727494             10.801788           -0.003881            0            -0.597823    [8[6[1][1][1]][1]]                                          
  H           5.357990             11.570185           -0.053049            0             0.402573    [1[8[6]]]                                                   
  H           4.991311             9.059950             0.974332            0             0.031932    [1[6[8][1][1]]]                                             
  H           6.151954             10.261616            1.523012            0             0.031932    [1[6[8][1][1]]]                                             
  H           4.377701             10.170308            2.005355            0             0.031932    [1[6[8][1][1]]]                                             
  C           2.661504             9.495271            -3.016311            1             0.099454    [6[8[1]][1][1][1]]                                          
  O           2.448546             10.402482           -1.978339            1            -0.597823    [8[6[1][1][1]][1]]                                          
  H           3.202107             10.311662           -1.412499            1             0.402573    [1[8[6]]]                                                   
  H           1.780161             9.520745            -3.748241            1             0.031932    [1[6[8][1][1]]]                                             
  H           3.569581             9.719727            -3.528841            1             0.031932    [1[6[8][1][1]]]                                             
  H           2.722283             8.392538            -2.647649            1             0.031932    [1[6[8][1][1]]]                                             
