12

  C          -0.161612            -1.013333            -9.391587            0             0.099454    [6[8[1]][1][1][1]]                                          
  O           0.287135            -0.195568            -10.440603           0            -0.597823    [8[6[1][1][1]][1]]                                          
  H          -0.128257            -0.529785            -11.255513           0             0.402573    [1[8[6]]]                                                   
  H           0.008915            -2.033474            -9.698819            0             0.031932    [1[6[8][1][1]]]                                             
  H           0.251185            -0.805331            -8.406444            0             0.031932    [1[6[8][1][1]]]                                             
  H          -1.254205            -0.943375            -9.349055            0             0.031932    [1[6[8][1][1]]]                                             
  C           4.437092            -0.808071            -10.256159           1             0.099454    [6[8[1]][1][1][1]]                                          
  O           3.049270            -0.932101            -9.980154            1            -0.597823    [8[6[1][1][1]][1]]                                          
  H           2.555484            -1.028475            -10.807407           1             0.402573    [1[8[6]]]                                                   
  H           5.159058            -1.269933            -9.547572            1             0.031932    [1[6[8][1][1]]]                                             
  H           4.795339            -1.273333            -11.214875           1             0.031932    [1[6[8][1][1]]]                                             
  H           4.641081             0.196038            -10.414987           1             0.031932    [1[6[8][1][1]]]                                             
