12

  C           6.493591            -7.114689             5.665414            0             0.099454    [6[8[1]][1][1][1]]                                          
  O           7.749158            -7.200561             5.023627            0            -0.597823    [8[6[1][1][1]][1]]                                          
  H           8.417499            -7.256658             5.702624            0             0.402573    [1[8[6]]]                                                   
  H           6.411173            -7.828988             6.442911            0             0.031932    [1[6[8][1][1]]]                                             
  H           6.322881            -6.124128             6.161306            0             0.031932    [1[6[8][1][1]]]                                             
  H           5.695959            -7.314876             5.013645            0             0.031932    [1[6[8][1][1]]]                                             
  C           6.841558            -4.279358             3.593163            1             0.099454    [6[8[1]][1][1][1]]                                          
  O           6.967058            -5.324514             2.727259            1            -0.597823    [8[6[1][1][1]][1]]                                          
  H           6.968686            -6.154978             3.242085            1             0.402573    [1[8[6]]]                                                   
  H           6.939423            -3.275139             3.211090            1             0.031932    [1[6[8][1][1]]]                                             
  H           5.826904            -4.372985             4.033386            1             0.031932    [1[6[8][1][1]]]                                             
  H           7.520350            -4.294207             4.443900            1             0.031932    [1[6[8][1][1]]]                                             
