12

  C          -2.746981            -10.165839            4.191200            0             0.099454    [6[8[1]][1][1][1]]                                          
  O          -3.048148            -11.236684            3.376958            0            -0.597823    [8[6[1][1][1]][1]]                                          
  H          -3.689760            -10.933665            2.729849            0             0.402573    [1[8[6]]]                                                   
  H          -1.646971            -9.973468             4.337059            0             0.031932    [1[6[8][1][1]]]                                             
  H          -3.318697            -9.308263             3.870905            0             0.031932    [1[6[8][1][1]]]                                             
  H          -3.193690            -10.319030            5.147980            0             0.031932    [1[6[8][1][1]]]                                             
  C          -1.371837            -10.736313            0.244261            1             0.099454    [6[8[1]][1][1][1]]                                          
  O          -0.558263            -11.186167            1.430407            1            -0.597823    [8[6[1][1][1]][1]]                                          
  H          -1.072691            -11.807029            1.918675            1             0.402573    [1[8[6]]]                                                   
  H          -2.470676            -10.567998            0.454982            1             0.031932    [1[6[8][1][1]]]                                             
  H          -0.970770            -9.759117            -0.126589            1             0.031932    [1[6[8][1][1]]]                                             
  H          -1.371345            -11.470152           -0.581594            1             0.031932    [1[6[8][1][1]]]                                             
