12

  C          -4.288569            -3.454093             4.046615            0             0.099454    [6[8[1]][1][1][1]]                                          
  O          -4.072984            -3.445141             5.450072            0            -0.597823    [8[6[1][1][1]][1]]                                          
  H          -3.608082            -2.611545             5.566733            0             0.402573    [1[8[6]]]                                                   
  H          -3.328369            -3.735090             3.527382            0             0.031932    [1[6[8][1][1]]]                                             
  H          -4.996269            -4.232074             3.685555            0             0.031932    [1[6[8][1][1]]]                                             
  H          -4.566862            -2.490800             3.649591            0             0.031932    [1[6[8][1][1]]]                                             
  C          -6.450668            -2.051976             0.907672            1             0.099454    [6[8[1]][1][1][1]]                                          
  O          -6.842140            -2.407038             2.187956            1            -0.597823    [8[6[1][1][1]][1]]                                          
  H          -7.405613            -1.682786             2.573265            1             0.402573    [1[8[6]]]                                                   
  H          -7.030339            -1.195502             0.550254            1             0.031932    [1[6[8][1][1]]]                                             
  H          -5.439405            -1.874149             0.857114            1             0.031932    [1[6[8][1][1]]]                                             
  H          -6.501631            -2.878888             0.125233            1             0.031932    [1[6[8][1][1]]]                                             
