12

  C          -4.761511             4.033597             0.644561            0             0.099454    [6[8[1]][1][1][1]]                                          
  O          -5.840978             3.433233             0.049642            0            -0.597823    [8[6[1][1][1]][1]]                                          
  H          -5.492849             2.523633             0.104784            0             0.402573    [1[8[6]]]                                                   
  H          -3.783085             3.629081             0.423102            0             0.031932    [1[6[8][1][1]]]                                             
  H          -4.640133             5.102742             0.387107            0             0.031932    [1[6[8][1][1]]]                                             
  H          -4.887416             4.115966             1.738798            0             0.031932    [1[6[8][1][1]]]                                             
  C          -6.012224             8.070531             2.004875            1             0.099454    [6[8[1]][1][1][1]]                                          
  O          -6.589310             7.979812             0.750287            1            -0.597823    [8[6[1][1][1]][1]]                                          
  H          -7.365943             7.467191             0.869601            1             0.402573    [1[8[6]]]                                                   
  H          -6.562652             8.706073             2.776293            1             0.031932    [1[6[8][1][1]]]                                             
  H          -5.782534             7.055373             2.420694            1             0.031932    [1[6[8][1][1]]]                                             
  H          -5.120311             8.707094             1.929749            1             0.031932    [1[6[8][1][1]]]                                             
