12

  C           4.420336            -3.631376             1.742753            0             0.099454    [6[8[1]][1][1][1]]                                          
  O           3.162538            -4.207617             1.389367            0            -0.597823    [8[6[1][1][1]][1]]                                          
  H           2.908502            -4.657569             2.203867            0             0.402573    [1[8[6]]]                                                   
  H           4.810058            -2.966194             0.971924            0             0.031932    [1[6[8][1][1]]]                                             
  H           4.419981            -3.156620             2.638260            0             0.031932    [1[6[8][1][1]]]                                             
  H           5.257324            -4.385752             1.882703            0             0.031932    [1[6[8][1][1]]]                                             
  C           7.645473            -3.915370             4.272997            1             0.099454    [6[8[1]][1][1][1]]                                          
  O           6.840229            -4.720736             5.101706            1            -0.597823    [8[6[1][1][1]][1]]                                          
  H           5.912074            -4.579328             4.841113            1             0.402573    [1[8[6]]]                                                   
  H           7.152472            -3.749235             3.316764            1             0.031932    [1[6[8][1][1]]]                                             
  H           7.773852            -2.964091             4.696939            1             0.031932    [1[6[8][1][1]]]                                             
  H           8.590248            -4.438842             4.029932            1             0.031932    [1[6[8][1][1]]]                                             
