12

  C          -0.612086             2.931693            -2.166030            0             0.099454    [6[8[1]][1][1][1]]                                          
  O          -1.917891             3.394526            -2.096503            0            -0.597823    [8[6[1][1][1]][1]]                                          
  H          -2.283379             3.362468            -1.200627            0             0.402573    [1[8[6]]]                                                   
  H          -0.456620             1.838111            -2.061463            0             0.031932    [1[6[8][1][1]]]                                             
  H          -0.083063             3.269453            -3.069938            0             0.031932    [1[6[8][1][1]]]                                             
  H          -0.006313             3.238354            -1.311755            0             0.031932    [1[6[8][1][1]]]                                             
  C           1.641276            -0.874325            -1.540660            1             0.099454    [6[8[1]][1][1][1]]                                          
  O           3.040268            -1.280909            -1.464437            1            -0.597823    [8[6[1][1][1]][1]]                                          
  H           3.423192            -0.560570            -0.969316            1             0.402573    [1[8[6]]]                                                   
  H           1.166156            -1.199427            -2.504805            1             0.031932    [1[6[8][1][1]]]                                             
  H           1.105807            -1.371834            -0.732987            1             0.031932    [1[6[8][1][1]]]                                             
  H           1.463836             0.223039            -1.419132            1             0.031932    [1[6[8][1][1]]]                                             
