12

  C          -2.232339             6.120175             1.436863            0             0.099454    [6[8[1]][1][1][1]]                                          
  O          -1.684877             5.426233             2.544154            0            -0.597823    [8[6[1][1][1]][1]]                                          
  H          -0.759028             5.616553             2.607638            0             0.402573    [1[8[6]]]                                                   
  H          -1.450779             6.683787             0.962567            0             0.031932    [1[6[8][1][1]]]                                             
  H          -2.595102             5.439515             0.614280            0             0.031932    [1[6[8][1][1]]]                                             
  H          -3.038450             6.785370             1.740800            0             0.031932    [1[6[8][1][1]]]                                             
  C          -0.724076             2.085475             2.183284            1             0.099454    [6[8[1]][1][1][1]]                                          
  O          -1.374681             2.465893             3.392818            1            -0.597823    [8[6[1][1][1]][1]]                                          
  H          -1.953464             3.260510             3.216241            1             0.402573    [1[8[6]]]                                                   
  H           0.226551             1.538815             2.290839            1             0.031932    [1[6[8][1][1]]]                                             
  H          -1.235051             1.347565             1.552322            1             0.031932    [1[6[8][1][1]]]                                             
  H          -0.372481             2.892699             1.636223            1             0.031932    [1[6[8][1][1]]]                                             
