12

  C          -1.179900            -8.638037            -6.948018            0             0.099454    [6[8[1]][1][1][1]]                                          
  O          -1.535437            -7.599694            -7.826611            0            -0.597823    [8[6[1][1][1]][1]]                                          
  H          -1.999492            -7.996814            -8.546439            0             0.402573    [1[8[6]]]                                                   
  H          -1.140443            -8.346784            -5.893805            0             0.031932    [1[6[8][1][1]]]                                             
  H          -1.993029            -9.398908            -7.027883            0             0.031932    [1[6[8][1][1]]]                                             
  H          -0.248926            -9.165004            -7.282007            0             0.031932    [1[6[8][1][1]]]                                             
  C           2.145759            -7.640377            -5.295091            1             0.099454    [6[8[1]][1][1][1]]                                          
  O           1.602418            -6.643994            -4.406657            1            -0.597823    [8[6[1][1][1]][1]]                                          
  H           1.492877            -5.865634            -4.983985            1             0.402573    [1[8[6]]]                                                   
  H           2.613263            -8.329677            -4.566801            1             0.031932    [1[6[8][1][1]]]                                             
  H           1.370464            -8.215374            -5.818654            1             0.031932    [1[6[8][1][1]]]                                             
  H           2.981365            -7.362654            -5.935000            1             0.031932    [1[6[8][1][1]]]                                             
