12

  C          -6.988085             5.917320            -1.756806            0             0.099454    [6[8[1]][1][1][1]]                                          
  O          -5.841079             5.346315            -1.198149            0            -0.597823    [8[6[1][1][1]][1]]                                          
  H          -6.238028             4.725105            -0.596400            0             0.402573    [1[8[6]]]                                                   
  H          -7.469596             5.138823            -2.402609            0             0.031932    [1[6[8][1][1]]]                                             
  H          -7.670168             6.304700            -1.043612            0             0.031932    [1[6[8][1][1]]]                                             
  H          -6.732474             6.712058            -2.340388            0             0.031932    [1[6[8][1][1]]]                                             
  C          -4.723180             2.478515            -4.752313            1             0.099454    [6[8[1]][1][1][1]]                                          
  O          -5.544233             3.373510            -5.366435            1            -0.597823    [8[6[1][1][1]][1]]                                          
  H          -5.971417             2.996121            -6.150473            1             0.402573    [1[8[6]]]                                                   
  H          -5.273834             1.547178            -4.698938            1             0.031932    [1[6[8][1][1]]]                                             
  H          -3.747039             2.419369            -5.248474            1             0.031932    [1[6[8][1][1]]]                                             
  H          -4.535337             2.705505            -3.659405            1             0.031932    [1[6[8][1][1]]]                                             
