12

  C           2.311494            -9.830904            -8.216563            0             0.099454    [6[8[1]][1][1][1]]                                          
  O           3.558891            -10.484770           -8.480704            0            -0.597823    [8[6[1][1][1]][1]]                                          
  H           3.941405            -10.762820           -7.664795            0             0.402573    [1[8[6]]]                                                   
  H           2.383091            -9.009173            -7.449427            0             0.031932    [1[6[8][1][1]]]                                             
  H           1.831679            -9.423599            -9.122781            0             0.031932    [1[6[8][1][1]]]                                             
  H           1.578314            -10.570983           -7.892508            0             0.031932    [1[6[8][1][1]]]                                             
  C           4.999269            -7.787659            -10.621185           1             0.099454    [6[8[1]][1][1][1]]                                          
  O           6.223927            -7.393043            -11.259496           1            -0.597823    [8[6[1][1][1]][1]]                                          
  H           6.016393            -6.779621            -11.954958           1             0.402573    [1[8[6]]]                                                   
  H           4.262193            -8.069069            -11.347399           1             0.031932    [1[6[8][1][1]]]                                             
  H           5.041425            -8.642465            -9.976267            1             0.031932    [1[6[8][1][1]]]                                             
  H           4.608047            -6.987080            -10.034388           1             0.031932    [1[6[8][1][1]]]                                             
