12

  C          -3.521737            -6.032928            -3.997539            0             0.099454    [6[8[1]][1][1][1]]                                          
  O          -3.209134            -4.842496            -3.204906            0            -0.597823    [8[6[1][1][1]][1]]                                          
  H          -3.319984            -4.094860            -3.795784            0             0.402573    [1[8[6]]]                                                   
  H          -3.627151            -6.940647            -3.414398            0             0.031932    [1[6[8][1][1]]]                                             
  H          -4.523750            -5.897630            -4.422226            0             0.031932    [1[6[8][1][1]]]                                             
  H          -2.762533            -6.264531            -4.740990            0             0.031932    [1[6[8][1][1]]]                                             
  C          -2.952406            -6.498806            -0.162085            1             0.099454    [6[8[1]][1][1][1]]                                          
  O          -1.905916            -5.710935            -0.784675            1            -0.597823    [8[6[1][1][1]][1]]                                          
  H          -2.092561            -5.473080            -1.718992            1             0.402573    [1[8[6]]]                                                   
  H          -3.475766            -5.887332             0.641250            1             0.031932    [1[6[8][1][1]]]                                             
  H          -3.772280            -6.829734            -0.810482            1             0.031932    [1[6[8][1][1]]]                                             
  H          -2.580405            -7.336790             0.338311            1             0.031932    [1[6[8][1][1]]]                                             
