12

  C           3.461109             3.222378             4.105244            0             0.099454    [6[8[1]][1][1][1]]                                          
  O           3.157580             2.071432             3.453058            0            -0.597823    [8[6[1][1][1]][1]]                                          
  H           2.370845             1.638740             3.819682            0             0.402573    [1[8[6]]]                                                   
  H           3.982423             3.051816             5.032330            0             0.031932    [1[6[8][1][1]]]                                             
  H           4.203252             3.873688             3.594400            0             0.031932    [1[6[8][1][1]]]                                             
  H           2.649209             3.897304             4.300673            0             0.031932    [1[6[8][1][1]]]                                             
  C           2.529571             8.507035             2.508720            1             0.099454    [6[8[1]][1][1][1]]                                          
  O           3.512554             9.481199             2.197412            1            -0.597823    [8[6[1][1][1]][1]]                                          
  H           4.406144             9.141253             2.398194            1             0.402573    [1[8[6]]]                                                   
  H           2.852111             7.492425             2.456525            1             0.031932    [1[6[8][1][1]]]                                             
  H           2.225178             8.679373             3.541326            1             0.031932    [1[6[8][1][1]]]                                             
  H           1.629167             8.692176             1.916672            1             0.031932    [1[6[8][1][1]]]                                             
