12

  C           8.923813            -0.098767             0.102245            0             0.099454    [6[8[1]][1][1][1]]                                          
  O           9.582362            -1.326979             0.347016            0            -0.597823    [8[6[1][1][1]][1]]                                          
  H           9.023009            -2.103097             0.072596            0             0.402573    [1[8[6]]]                                                   
  H           8.093396            -0.021769             0.727830            0             0.031932    [1[6[8][1][1]]]                                             
  H           9.461664             0.800306             0.080617            0             0.031932    [1[6[8][1][1]]]                                             
  H           8.508285            -0.104171            -0.930753            0             0.031932    [1[6[8][1][1]]]                                             
  C           10.252695            1.042961             2.946133            1             0.099454    [6[8[1]][1][1][1]]                                          
  O           10.630903           -0.307615             2.602449            1            -0.597823    [8[6[1][1][1]][1]]                                          
  H           10.463660           -0.463555             1.629546            1             0.402573    [1[8[6]]]                                                   
  H           9.211106             1.053468             3.160243            1             0.031932    [1[6[8][1][1]]]                                             
  H           10.716787            1.501780             3.818177            1             0.031932    [1[6[8][1][1]]]                                             
  H           10.449982            1.739359             2.112815            1             0.031932    [1[6[8][1][1]]]                                             
