12

  C          -6.355175             4.803348            -0.633554            0             0.099454    [6[8[1]][1][1][1]]                                          
  O          -6.165207             4.170899             0.606047            0            -0.597823    [8[6[1][1][1]][1]]                                          
  H          -6.825564             3.483296             0.638373            0             0.402573    [1[8[6]]]                                                   
  H          -7.380405             5.187809            -0.791474            0             0.031932    [1[6[8][1][1]]]                                             
  H          -5.628031             5.602576            -0.976239            0             0.031932    [1[6[8][1][1]]]                                             
  H          -6.191720             4.108695            -1.435763            0             0.031932    [1[6[8][1][1]]]                                             
  C          -2.993871             4.808309             1.070892            1             0.099454    [6[8[1]][1][1][1]]                                          
  O          -3.326245             3.552007             0.491658            1            -0.597823    [8[6[1][1][1]][1]]                                          
  H          -4.295734             3.647251             0.335591            1             0.402573    [1[8[6]]]                                                   
  H          -3.327835             5.618493             0.369833            1             0.031932    [1[6[8][1][1]]]                                             
  H          -3.499959             4.935140             1.987450            1             0.031932    [1[6[8][1][1]]]                                             
  H          -1.906721             4.852058             1.179640            1             0.031932    [1[6[8][1][1]]]                                             
