12

  C          -4.404088             8.301421            -11.045758           0             0.099454    [6[8[1]][1][1][1]]                                          
  O          -3.754674             9.139103            -10.163553           0            -0.597823    [8[6[1][1][1]][1]]                                          
  H          -3.325640             8.637226            -9.468099            0             0.402573    [1[8[6]]]                                                   
  H          -3.700890             7.749729            -11.725088           0             0.031932    [1[6[8][1][1]]]                                             
  H          -5.091400             7.647098            -10.565923           0             0.031932    [1[6[8][1][1]]]                                             
  H          -4.980767             8.861053            -11.734512           0             0.031932    [1[6[8][1][1]]]                                             
  C          -1.296609             7.293209            -7.531955            1             0.099454    [6[8[1]][1][1][1]]                                          
  O          -1.946589             7.464727            -8.781406            1            -0.597823    [8[6[1][1][1]][1]]                                          
  H          -1.329584             7.170655            -9.429763            1             0.402573    [1[8[6]]]                                                   
  H          -1.560090             6.288227            -7.259894            1             0.031932    [1[6[8][1][1]]]                                             
  H          -0.201861             7.420259            -7.582336            1             0.031932    [1[6[8][1][1]]]                                             
  H          -1.695462             7.848368            -6.655559            1             0.031932    [1[6[8][1][1]]]                                             
