12

  C           9.028161            -7.584521             4.100614            0             0.099454    [6[8[1]][1][1][1]]                                          
  O           8.192791            -6.828802             5.014434            0            -0.597823    [8[6[1][1][1]][1]]                                          
  H           7.594326            -6.269406             4.519792            0             0.402573    [1[8[6]]]                                                   
  H           8.513725            -7.939866             3.227101            0             0.031932    [1[6[8][1][1]]]                                             
  H           9.834166            -6.927564             3.751375            0             0.031932    [1[6[8][1][1]]]                                             
  H           9.510038            -8.408056             4.560258            0             0.031932    [1[6[8][1][1]]]                                             
  C           4.431725            -7.665055             2.090697            1             0.099454    [6[8[1]][1][1][1]]                                          
  O           3.952023            -6.491349             1.410912            1            -0.597823    [8[6[1][1][1]][1]]                                          
  H           3.328230            -6.798843             0.777364            1             0.402573    [1[8[6]]]                                                   
  H           4.780630            -7.528567             3.165821            1             0.031932    [1[6[8][1][1]]]                                             
  H           3.676790            -8.425385             2.224436            1             0.031932    [1[6[8][1][1]]]                                             
  H           5.257846            -8.104573             1.525051            1             0.031932    [1[6[8][1][1]]]                                             
