12

  C           7.874232            -11.071143            3.966624            0             0.099454    [6[8[1]][1][1][1]]                                          
  O           7.687014            -11.846176            5.116566            0            -0.597823    [8[6[1][1][1]][1]]                                          
  H           7.956098            -12.702588            4.813071            0             0.402573    [1[8[6]]]                                                   
  H           7.097583            -10.318167            3.915558            0             0.031932    [1[6[8][1][1]]]                                             
  H           8.832153            -10.564399            3.880598            0             0.031932    [1[6[8][1][1]]]                                             
  H           7.813907            -11.598509            3.043541            0             0.031932    [1[6[8][1][1]]]                                             
  C           5.749419            -9.874577             7.272263            1             0.099454    [6[8[1]][1][1][1]]                                          
  O           6.902295            -9.710720             6.483287            1            -0.597823    [8[6[1][1][1]][1]]                                          
  H           6.983640            -10.309345            5.776016            1             0.402573    [1[8[6]]]                                                   
  H           4.869274            -9.851773             6.609872            1             0.031932    [1[6[8][1][1]]]                                             
  H           5.770182            -10.899882            7.782322            1             0.031932    [1[6[8][1][1]]]                                             
  H           5.602472            -9.040919             7.981364            1             0.031932    [1[6[8][1][1]]]                                             
