12

  C          -7.955104             7.258988            -0.000909            0             0.099454    [6[8[1]][1][1][1]]                                          
  O          -6.999402             6.220627            -0.233799            0            -0.597823    [8[6[1][1][1]][1]]                                          
  H          -7.240570             5.795469            -1.073477            0             0.402573    [1[8[6]]]                                                   
  H          -8.423059             7.641103            -0.925569            0             0.031932    [1[6[8][1][1]]]                                             
  H          -8.745755             6.813650             0.565362            0             0.031932    [1[6[8][1][1]]]                                             
  H          -7.638297             8.141113             0.464087            0             0.031932    [1[6[8][1][1]]]                                             
  C          -10.905900            4.691083            -2.253207            1             0.099454    [6[8[1]][1][1][1]]                                          
  O          -10.279769            5.614224            -1.330346            1            -0.597823    [8[6[1][1][1]][1]]                                          
  H          -9.385260             5.194568            -1.209136            1             0.402573    [1[8[6]]]                                                   
  H          -10.600966            3.681428            -1.983528            1             0.031932    [1[6[8][1][1]]]                                             
  H          -12.013929            4.621975            -2.190608            1             0.031932    [1[6[8][1][1]]]                                             
  H          -10.508942            4.939356            -3.231760            1             0.031932    [1[6[8][1][1]]]                                             
