12

  C          -2.327879            -1.689422            -8.778547            0             0.099454    [6[8[1]][1][1][1]]                                          
  O          -1.414397            -2.216028            -7.842568            0            -0.597823    [8[6[1][1][1]][1]]                                          
  H          -1.431879            -3.135477            -8.159358            0             0.402573    [1[8[6]]]                                                   
  H          -1.907718            -1.481460            -9.705796            0             0.031932    [1[6[8][1][1]]]                                             
  H          -3.138934            -2.311804            -8.966968            0             0.031932    [1[6[8][1][1]]]                                             
  H          -2.843604            -0.810400            -8.339234            0             0.031932    [1[6[8][1][1]]]                                             
  C           2.820385            -5.089444            -8.442606            1             0.099454    [6[8[1]][1][1][1]]                                          
  O           2.945172            -3.830375            -7.756937            1            -0.597823    [8[6[1][1][1]][1]]                                          
  H           2.962950            -3.070682            -8.399219            1             0.402573    [1[8[6]]]                                                   
  H           1.914356            -5.641353            -8.329648            1             0.031932    [1[6[8][1][1]]]                                             
  H           3.072038            -5.033986            -9.493354            1             0.031932    [1[6[8][1][1]]]                                             
  H           3.628595            -5.784499            -8.061974            1             0.031932    [1[6[8][1][1]]]                                             
