12

  C           2.523888             4.676657             7.090738            0             0.099454    [6[8[1]][1][1][1]]                                          
  O           2.566897             6.070124             6.773619            0            -0.597823    [8[6[1][1][1]][1]]                                          
  H           1.949694             6.599378             7.303895            0             0.402573    [1[8[6]]]                                                   
  H           3.367195             4.206097             6.586594            0             0.031932    [1[6[8][1][1]]]                                             
  H           2.634672             4.644139             8.164876            0             0.031932    [1[6[8][1][1]]]                                             
  H           1.636308             4.135860             6.734283            0             0.031932    [1[6[8][1][1]]]                                             
  C           2.680048             11.428202            5.553753            1             0.099454    [6[8[1]][1][1][1]]                                          
  O           3.205014             10.351090            4.820974            1            -0.597823    [8[6[1][1][1]][1]]                                          
  H           3.830850             9.851421             5.347493            1             0.402573    [1[8[6]]]                                                   
  H           3.483308             12.098825            5.951507            1             0.031932    [1[6[8][1][1]]]                                             
  H           2.029457             11.987699            4.871280            1             0.031932    [1[6[8][1][1]]]                                             
  H           2.058830             11.102375            6.433720            1             0.031932    [1[6[8][1][1]]]                                             
