6
Coordinates from ORCA-job 9_geo_opt
  C   3.01150707127706     -1.18062685529141      0.59833616418770
  O   4.39484342027215     -1.12770055444574      0.87407652407916
  H   4.77206591509498     -0.37928836908292      0.41267670786689
  H   2.80660156149772     -1.31866559289331     -0.46950657174694
  H   2.61166995924331     -2.03994643381919      1.13567915166876
  H   2.48494307261479     -0.28421019446742      0.94546602394443
