12

  C           3.336545            -6.019057            -0.127289            0             0.099454    [6[8[1]][1][1][1]]                                          
  O           2.124200            -6.692143            -0.632479            0            -0.597823    [8[6[1][1][1]][1]]                                          
  H           2.245712            -6.788249            -1.551181            0             0.402573    [1[8[6]]]                                                   
  H           3.279200            -5.674546             0.871108            0             0.031932    [1[6[8][1][1]]]                                             
  H           4.169471            -6.729841            -0.125674            0             0.031932    [1[6[8][1][1]]]                                             
  H           3.693860            -5.153305            -0.729483            0             0.031932    [1[6[8][1][1]]]                                             
  C           1.902938            -10.183330           -0.242659            1             0.099454    [6[8[1]][1][1][1]]                                          
  O           1.823261            -10.422519           -1.562865            1            -0.597823    [8[6[1][1][1]][1]]                                          
  H           2.198276            -9.705915            -2.126604            1             0.402573    [1[8[6]]]                                                   
  H           1.611273            -9.195077            -0.089689            1             0.031932    [1[6[8][1][1]]]                                             
  H           1.299524            -10.887221            0.445559            1             0.031932    [1[6[8][1][1]]]                                             
  H           2.936813            -10.214701            0.098518            1             0.031932    [1[6[8][1][1]]]                                             
