12

  C          -10.197171           -6.054642             2.974912            0             0.099454    [6[8[1]][1][1][1]]                                          
  O          -8.844491            -5.867952             3.255921            0            -0.597823    [8[6[1][1][1]][1]]                                          
  H          -8.304808            -5.932936             2.427951            0             0.402573    [1[8[6]]]                                                   
  H          -10.937768           -5.699110             3.668362            0             0.031932    [1[6[8][1][1]]]                                             
  H          -10.469708           -5.594720             2.039846            0             0.031932    [1[6[8][1][1]]]                                             
  H          -10.309005           -7.149130             2.842359            0             0.031932    [1[6[8][1][1]]]                                             
  C          -6.653174            -7.874248             5.237978            1             0.099454    [6[8[1]][1][1][1]]                                          
  O          -7.979225            -8.104155             4.854656            1            -0.597823    [8[6[1][1][1]][1]]                                          
  H          -8.288477            -7.238012             4.502890            1             0.402573    [1[8[6]]]                                                   
  H          -6.537435            -6.841876             5.437256            1             0.031932    [1[6[8][1][1]]]                                             
  H          -6.311721            -8.503935             6.057070            1             0.031932    [1[6[8][1][1]]]                                             
  H          -5.908444            -7.974290             4.460605            1             0.031932    [1[6[8][1][1]]]                                             
