12

  C          -1.761067             5.722091            -2.002277            0             0.099454    [6[8[1]][1][1][1]]                                          
  O          -1.949604             4.450320            -2.319201            0            -0.597823    [8[6[1][1][1]][1]]                                          
  H          -2.743328             3.992807            -2.075747            0             0.402573    [1[8[6]]]                                                   
  H          -2.692750             6.144057            -1.678658            0             0.031932    [1[6[8][1][1]]]                                             
  H          -0.954174             5.871586            -1.341224            0             0.031932    [1[6[8][1][1]]]                                             
  H          -1.561292             6.309232            -2.952997            0             0.031932    [1[6[8][1][1]]]                                             
  C          -3.434642             10.098755           -2.541995            1             0.099454    [6[8[1]][1][1][1]]                                          
  O          -2.486791             9.020784            -2.459724            1            -0.597823    [8[6[1][1][1]][1]]                                          
  H          -1.622324             9.363562            -2.421603            1             0.402573    [1[8[6]]]                                                   
  H          -4.241317             9.969688            -1.871554            1             0.031932    [1[6[8][1][1]]]                                             
  H          -2.977795             11.011380           -2.118214            1             0.031932    [1[6[8][1][1]]]                                             
  H          -3.871249             10.220332           -3.510029            1             0.031932    [1[6[8][1][1]]]                                             
