12

  C           5.117424            -2.071399            -8.564140            0             0.099454    [6[8[1]][1][1][1]]                                          
  O           4.599558            -0.856019            -8.973376            0            -0.597823    [8[6[1][1][1]][1]]                                          
  H           4.408494            -0.424561            -8.153434            0             0.402573    [1[8[6]]]                                                   
  H           6.191470            -2.058312            -8.424507            0             0.031932    [1[6[8][1][1]]]                                             
  H           4.655384            -2.305596            -7.619523            0             0.031932    [1[6[8][1][1]]]                                             
  H           4.799643            -2.869894            -9.222142            0             0.031932    [1[6[8][1][1]]]                                             
  C           6.138775             1.105410            -6.550989            1             0.099454    [6[8[1]][1][1][1]]                                          
  O           4.848622             0.624918            -6.810171            1            -0.597823    [8[6[1][1][1]][1]]                                          
  H           4.246071             1.217651            -6.369775            1             0.402573    [1[8[6]]]                                                   
  H           6.329343             0.969225            -5.450410            1             0.031932    [1[6[8][1][1]]]                                             
  H           6.799628             0.397577            -7.016951            1             0.031932    [1[6[8][1][1]]]                                             
  H           6.253958             2.163259            -6.958496            1             0.031932    [1[6[8][1][1]]]                                             
