12

  C          -2.561850             8.333009             5.793317            0             0.099454    [6[8[1]][1][1][1]]                                          
  O          -3.098374             7.684261             4.668960            0            -0.597823    [8[6[1][1][1]][1]]                                          
  H          -2.260752             7.229011             4.369283            0             0.402573    [1[8[6]]]                                                   
  H          -1.504505             8.534680             5.701477            0             0.031932    [1[6[8][1][1]]]                                             
  H          -3.050513             9.317847             5.958538            0             0.031932    [1[6[8][1][1]]]                                             
  H          -2.651462             7.682936             6.685952            0             0.031932    [1[6[8][1][1]]]                                             
  C          -0.472696             4.387089             3.663431            1             0.099454    [6[8[1]][1][1][1]]                                          
  O          -1.199692             5.523932             3.957028            1            -0.597823    [8[6[1][1][1]][1]]                                          
  H          -2.086273             5.148454             3.979004            1             0.402573    [1[8[6]]]                                                   
  H          -0.320164             3.771186             4.547307            1             0.031932    [1[6[8][1][1]]]                                             
  H          -0.846231             3.767167             2.796776            1             0.031932    [1[6[8][1][1]]]                                             
  H           0.467371             4.666513             3.242969            1             0.031932    [1[6[8][1][1]]]                                             
