6
Coordinates from ORCA-job geoopt
  C   3.01135889750916     -1.18092889742990      0.59852324889314
  O   4.39469532334204     -1.12802774178652      0.87428206376804
  H   4.77218386611564     -0.37898779991878      0.41248378797285
  H   2.80644458714015     -1.31897377149975     -0.46931751472056
  H   2.61153130940952     -2.04025393213929      1.13587257766954
  H   2.48478601648349     -0.28451785722576      0.94565583641699
