12

  C          -0.723120            -11.332098           -10.399083           0             0.099454    [6[8[1]][1][1][1]]                                          
  O          -0.595115            -10.311008           -11.360115           0            -0.597823    [8[6[1][1][1]][1]]                                          
  H          -0.463579            -9.482378            -10.877371           0             0.402573    [1[8[6]]]                                                   
  H           0.148518            -11.591512           -9.878581            0             0.031932    [1[6[8][1][1]]]                                             
  H          -1.510318            -11.025015           -9.697890            0             0.031932    [1[6[8][1][1]]]                                             
  H          -1.046432            -12.280679           -10.870928           0             0.031932    [1[6[8][1][1]]]                                             
  C          -3.903853            -9.314439            -6.920774            1             0.099454    [6[8[1]][1][1][1]]                                          
  O          -4.838043            -10.169940           -7.627964            1            -0.597823    [8[6[1][1][1]][1]]                                          
  H          -5.748097            -9.828896            -7.577020            1             0.402573    [1[8[6]]]                                                   
  H          -2.866147            -9.662974            -7.032656            1             0.031932    [1[6[8][1][1]]]                                             
  H          -3.789003            -8.288964            -7.246554            1             0.031932    [1[6[8][1][1]]]                                             
  H          -4.070842            -9.207480            -5.823617            1             0.031932    [1[6[8][1][1]]]                                             
