12

  C          -0.024372            -3.885703            -9.135694            0             0.099454    [6[8[1]][1][1][1]]                                          
  O           1.193417            -4.571755            -8.830151            0            -0.597823    [8[6[1][1][1]][1]]                                          
  H           1.057361            -5.472801            -8.697428            0             0.402573    [1[8[6]]]                                                   
  H           0.187566            -2.775879            -9.153679            0             0.031932    [1[6[8][1][1]]]                                             
  H          -0.366519            -4.130893            -10.134858           0             0.031932    [1[6[8][1][1]]]                                             
  H          -0.855381            -4.094383            -8.449808            0             0.031932    [1[6[8][1][1]]]                                             
  C           1.012450            -8.087145            -8.966099            1             0.099454    [6[8[1]][1][1][1]]                                          
  O           0.468687            -7.235408            -8.032488            1            -0.597823    [8[6[1][1][1]][1]]                                          
  H          -0.158623            -7.797549            -7.577769            1             0.402573    [1[8[6]]]                                                   
  H           0.352099            -8.187709            -9.837773            1             0.031932    [1[6[8][1][1]]]                                             
  H           1.985978            -7.762888            -9.296149            1             0.031932    [1[6[8][1][1]]]                                             
  H           1.128138            -9.072692            -8.465791            1             0.031932    [1[6[8][1][1]]]                                             
