6
Coordinates from ORCA-job 10_geo_opt
  C   3.01189593735472     -1.18091052461589      0.59863230965774
  O   4.39429562032463     -1.12797907445369      0.87415515575046
  H   4.77195706509271     -0.37898590920360      0.41243049035808
  H   2.80677129045873     -1.31899085814454     -0.46921251146839
  H   2.61194195875520     -2.04023436844253      1.13595212873832
  H   2.48511812801401     -0.28455126513976      0.94573842696380
