12

  C           2.961884             0.407319            -2.412688            0             0.099454    [6[8[1]][1][1][1]]                                          
  O           2.456259             1.484305            -1.679243            0            -0.597823    [8[6[1][1][1]][1]]                                          
  H           2.553771             1.294301            -0.756044            0             0.402573    [1[8[6]]]                                                   
  H           3.996649             0.213085            -2.123589            0             0.031932    [1[6[8][1][1]]]                                             
  H           2.420544            -0.510132            -2.440008            0             0.031932    [1[6[8][1][1]]]                                             
  H           2.934534             0.770478            -3.468027            0             0.031932    [1[6[8][1][1]]]                                             
  C           1.586198             3.064769             1.258012            1             0.099454    [6[8[1]][1][1][1]]                                          
  O           2.942958             3.362784             1.580281            1            -0.597823    [8[6[1][1][1]][1]]                                          
  H           3.444564             3.670223             0.817226            1             0.402573    [1[8[6]]]                                                   
  H           1.019516             3.962641             1.026956            1             0.031932    [1[6[8][1][1]]]                                             
  H           1.526199             2.411293             0.366586            1             0.031932    [1[6[8][1][1]]]                                             
  H           0.905983             2.694856             2.019195            1             0.031932    [1[6[8][1][1]]]                                             
