12

  C          -4.021581             2.799748            -3.951247            0             0.099454    [6[8[1]][1][1][1]]                                          
  O          -3.968984             3.408857            -2.693875            0            -0.597823    [8[6[1][1][1]][1]]                                          
  H          -3.428997             4.133400            -2.976944            0             0.402573    [1[8[6]]]                                                   
  H          -4.837682             2.116741            -4.115847            0             0.031932    [1[6[8][1][1]]]                                             
  H          -4.388551             3.544017            -4.698766            0             0.031932    [1[6[8][1][1]]]                                             
  H          -3.031499             2.512948            -4.232440            0             0.031932    [1[6[8][1][1]]]                                             
  C          -5.938019             1.396045            -1.010357            1             0.099454    [6[8[1]][1][1][1]]                                          
  O          -5.780449             2.649759            -0.478520            1            -0.597823    [8[6[1][1][1]][1]]                                          
  H          -5.146989             3.115646            -1.048343            1             0.402573    [1[8[6]]]                                                   
  H          -5.745337             1.479658            -2.080329            1             0.031932    [1[6[8][1][1]]]                                             
  H          -5.070851             0.715713            -0.818665            1             0.031932    [1[6[8][1][1]]]                                             
  H          -6.876233             0.889256            -0.793456            1             0.031932    [1[6[8][1][1]]]                                             
