12

  C          -2.473489             2.754382            -3.587635            0             0.099454    [6[8[1]][1][1][1]]                                          
  O          -2.443331             4.137999            -3.468418            0            -0.597823    [8[6[1][1][1]][1]]                                          
  H          -2.406738             4.647574            -4.288539            0             0.402573    [1[8[6]]]                                                   
  H          -1.822514             2.438176            -4.417710            0             0.031932    [1[6[8][1][1]]]                                             
  H          -2.095098             2.370439            -2.644488            0             0.031932    [1[6[8][1][1]]]                                             
  H          -3.458589             2.327411            -3.868728            0             0.031932    [1[6[8][1][1]]]                                             
  C          -2.594879             8.199299             0.433839            1             0.099454    [6[8[1]][1][1][1]]                                          
  O          -2.875502             6.827219             0.129060            1            -0.597823    [8[6[1][1][1]][1]]                                          
  H          -3.783125             6.745427            -0.117083            1             0.402573    [1[8[6]]]                                                   
  H          -1.540234             8.249601             0.733262            1             0.031932    [1[6[8][1][1]]]                                             
  H          -2.685778             8.822723            -0.489684            1             0.031932    [1[6[8][1][1]]]                                             
  H          -3.280828             8.560480             1.135978            1             0.031932    [1[6[8][1][1]]]                                             
