12

  C          -5.423742            -0.385399            -2.568477            0             0.099454    [6[8[1]][1][1][1]]                                          
  O          -6.072185            -0.124848            -3.822119            0            -0.597823    [8[6[1][1][1]][1]]                                          
  H          -6.889635             0.328356            -3.630966            0             0.402573    [1[8[6]]]                                                   
  H          -5.797947            -1.302258            -2.110480            0             0.031932    [1[6[8][1][1]]]                                             
  H          -4.343157            -0.522965            -2.760718            0             0.031932    [1[6[8][1][1]]]                                             
  H          -5.495436             0.461736            -1.828739            0             0.031932    [1[6[8][1][1]]]                                             
  C          -6.482326            -3.038393            -5.791056            1             0.099454    [6[8[1]][1][1][1]]                                          
  O          -6.057388            -3.289651            -4.501937            1            -0.597823    [8[6[1][1][1]][1]]                                          
  H          -5.902887            -2.445885            -4.129103            1             0.402573    [1[8[6]]]                                                   
  H          -5.685988            -2.839495            -6.488605            1             0.031932    [1[6[8][1][1]]]                                             
  H          -7.109373            -3.769275            -6.260965            1             0.031932    [1[6[8][1][1]]]                                             
  H          -7.041879            -2.097533            -5.741855            1             0.031932    [1[6[8][1][1]]]                                             
