12

  C          -8.291909            -9.824663            -9.417989            0             0.099454    [6[8[1]][1][1][1]]                                          
  O          -7.835395            -10.309451           -10.671300           0            -0.597823    [8[6[1][1][1]][1]]                                          
  H          -6.842935            -10.248512           -10.710201           0             0.402573    [1[8[6]]]                                                   
  H          -8.071282            -8.713678            -9.406191            0             0.031932    [1[6[8][1][1]]]                                             
  H          -9.310220            -9.973369            -9.239578            0             0.031932    [1[6[8][1][1]]]                                             
  H          -7.730536            -10.313792           -8.609002            0             0.031932    [1[6[8][1][1]]]                                             
  C          -4.860387            -9.042144            -9.649226            1             0.099454    [6[8[1]][1][1][1]]                                          
  O          -5.304821            -10.405946           -9.588112            1            -0.597823    [8[6[1][1][1]][1]]                                          
  H          -4.701139            -10.883973           -8.971898            1             0.402573    [1[8[6]]]                                                   
  H          -5.546647            -8.382812            -10.145500           1             0.031932    [1[6[8][1][1]]]                                             
  H          -4.744645            -8.673357            -8.618931            1             0.031932    [1[6[8][1][1]]]                                             
  H          -3.819723            -8.963563            -9.981958            1             0.031932    [1[6[8][1][1]]]                                             
