12

  C          -3.289817             3.839313            -6.482746            0             0.099454    [6[8[1]][1][1][1]]                                          
  O          -4.185576             4.250906            -7.462851            0            -0.597823    [8[6[1][1][1]][1]]                                          
  H          -4.707539             3.455339            -7.545012            0             0.402573    [1[8[6]]]                                                   
  H          -3.645948             3.191517            -5.758856            0             0.031932    [1[6[8][1][1]]]                                             
  H          -2.405513             3.242529            -6.901142            0             0.031932    [1[6[8][1][1]]]                                             
  H          -2.662676             4.632680            -6.020365            0             0.031932    [1[6[8][1][1]]]                                             
  C          -3.012041             3.900434            -2.663585            1             0.099454    [6[8[1]][1][1][1]]                                          
  O          -3.640976             3.102561            -1.705036            1            -0.597823    [8[6[1][1][1]][1]]                                          
  H          -3.750378             2.216618            -2.059249            1             0.402573    [1[8[6]]]                                                   
  H          -1.965253             3.607552            -2.994264            1             0.031932    [1[6[8][1][1]]]                                             
  H          -3.582137             3.853329            -3.609413            1             0.031932    [1[6[8][1][1]]]                                             
  H          -2.865664             4.852373            -2.280385            1             0.031932    [1[6[8][1][1]]]                                             
