6
Coordinates from ORCA-job 4_geo_opt
  C   3.01140768239234     -1.18087542136322      0.59850678970432
  O   4.39488485073843     -1.12888487302682      0.87365898082628
  H   4.77215014426566     -0.37926033585824      0.41263857341138
  H   2.80635159212080     -1.31899975152602     -0.46931436480745
  H   2.61161338776752     -2.04025210850950      1.13583730747798
  H   2.48391334271525     -0.28488350971620      0.94532671338749
