12

  C          -6.030512             6.655904             1.816928            0             0.099454    [6[8[1]][1][1][1]]                                          
  O          -5.728468             6.776601             3.218112            0            -0.597823    [8[6[1][1][1]][1]]                                          
  H          -4.798940             6.874311             3.255842            0             0.402573    [1[8[6]]]                                                   
  H          -7.104650             6.813739             1.601745            0             0.031932    [1[6[8][1][1]]]                                             
  H          -5.444522             7.352368             1.185617            0             0.031932    [1[6[8][1][1]]]                                             
  H          -5.877691             5.637061             1.551672            0             0.031932    [1[6[8][1][1]]]                                             
  C          -2.594879             8.199299             0.433839            1             0.099454    [6[8[1]][1][1][1]]                                          
  O          -2.875502             6.827219             0.129060            1            -0.597823    [8[6[1][1][1]][1]]                                          
  H          -3.783125             6.745427            -0.117083            1             0.402573    [1[8[6]]]                                                   
  H          -1.540234             8.249601             0.733262            1             0.031932    [1[6[8][1][1]]]                                             
  H          -2.685778             8.822723            -0.489684            1             0.031932    [1[6[8][1][1]]]                                             
  H          -3.280828             8.560480             1.135978            1             0.031932    [1[6[8][1][1]]]                                             
