12

  C          -9.377443            -0.722194            -1.786221            0             0.099454    [6[8[1]][1][1][1]]                                          
  O          -9.024279            -1.231015            -3.033294            0            -0.597823    [8[6[1][1][1]][1]]                                          
  H          -8.088597            -1.123171            -3.081556            0             0.402573    [1[8[6]]]                                                   
  H          -9.541488             0.328002            -1.906169            0             0.031932    [1[6[8][1][1]]]                                             
  H          -10.284769           -1.261342            -1.328762            0             0.031932    [1[6[8][1][1]]]                                             
  H          -8.513561            -0.847553            -1.098093            0             0.031932    [1[6[8][1][1]]]                                             
  C          -10.601700           -1.340153            -6.515866            1             0.099454    [6[8[1]][1][1][1]]                                          
  O          -9.853865            -2.173804            -5.554064            1            -0.597823    [8[6[1][1][1]][1]]                                          
  H          -10.156461           -2.016928            -4.673614            1             0.402573    [1[8[6]]]                                                   
  H          -10.217419           -0.365535            -6.397053            1             0.031932    [1[6[8][1][1]]]                                             
  H          -10.391301           -1.669020            -7.565933            1             0.031932    [1[6[8][1][1]]]                                             
  H          -11.635919           -1.467223            -6.354808            1             0.031932    [1[6[8][1][1]]]                                             
