12

  C           9.120961            -6.849547            -2.911448            0             0.099454    [6[8[1]][1][1][1]]                                          
  O           8.104281            -5.987390            -3.377930            0            -0.597823    [8[6[1][1][1]][1]]                                          
  H           7.520534            -6.399815            -3.979803            0             0.402573    [1[8[6]]]                                                   
  H           9.537305            -6.457883            -1.999201            0             0.031932    [1[6[8][1][1]]]                                             
  H           8.666208            -7.838895            -2.838411            0             0.031932    [1[6[8][1][1]]]                                             
  H           9.986982            -7.033741            -3.580794            0             0.031932    [1[6[8][1][1]]]                                             
  C           9.492134            -4.067995            -5.637031            1             0.099454    [6[8[1]][1][1][1]]                                          
  O           10.793203           -3.694952            -5.312607            1            -0.597823    [8[6[1][1][1]][1]]                                          
  H           10.904339           -3.547734            -4.365775            1             0.402573    [1[8[6]]]                                                   
  H           9.148676            -3.573289            -6.555278            1             0.031932    [1[6[8][1][1]]]                                             
  H           9.361102            -5.168756            -5.751145            1             0.031932    [1[6[8][1][1]]]                                             
  H           8.743176            -3.656252            -4.911386            1             0.031932    [1[6[8][1][1]]]                                             
