12

  C          -2.012563             4.665636            -1.975602            0             0.099454    [6[8[1]][1][1][1]]                                          
  O          -2.587163             3.443356            -2.387225            0            -0.597823    [8[6[1][1][1]][1]]                                          
  H          -2.699769             2.832937            -1.683804            0             0.402573    [1[8[6]]]                                                   
  H          -1.104865             4.452574            -1.373677            0             0.031932    [1[6[8][1][1]]]                                             
  H          -1.693675             5.183946            -2.882772            0             0.031932    [1[6[8][1][1]]]                                             
  H          -2.766827             5.318061            -1.491630            0             0.031932    [1[6[8][1][1]]]                                             
  C          -2.094311             2.283453             2.567803            1             0.099454    [6[8[1]][1][1][1]]                                          
  O          -2.206315             1.869918             1.194003            1            -0.597823    [8[6[1][1][1]][1]]                                          
  H          -3.161988             1.826491             1.108694            1             0.402573    [1[8[6]]]                                                   
  H          -2.770650             1.809254             3.256604            1             0.031932    [1[6[8][1][1]]]                                             
  H          -1.121342             2.272797             2.978147            1             0.031932    [1[6[8][1][1]]]                                             
  H          -2.354916             3.318122             2.580382            1             0.031932    [1[6[8][1][1]]]                                             
