12

  C          -6.296488             0.198913             2.792889            0             0.099454    [6[8[1]][1][1][1]]                                          
  O          -6.461516            -0.521665             1.555688            0            -0.597823    [8[6[1][1][1]][1]]                                          
  H          -5.961074            -1.353102             1.626890            0             0.402573    [1[8[6]]]                                                   
  H          -6.761771            -0.381322             3.663012            0             0.031932    [1[6[8][1][1]]]                                             
  H          -5.261582             0.262228             3.149411            0             0.031932    [1[6[8][1][1]]]                                             
  H          -6.779186             1.233509             2.736756            0             0.031932    [1[6[8][1][1]]]                                             
  C          -5.568254            -3.555992            -1.520205            1             0.099454    [6[8[1]][1][1][1]]                                          
  O          -6.828211            -4.070535            -1.896259            1            -0.597823    [8[6[1][1][1]][1]]                                          
  H          -6.816307            -4.100120            -2.846826            1             0.402573    [1[8[6]]]                                                   
  H          -5.608315            -2.703405            -0.819243            1             0.031932    [1[6[8][1][1]]]                                             
  H          -5.009974            -4.353165            -0.938864            1             0.031932    [1[6[8][1][1]]]                                             
  H          -4.857457            -3.366552            -2.418763            1             0.031932    [1[6[8][1][1]]]                                             
