12

  C           4.682052            -4.285258             7.565120            0             0.099454    [6[8[1]][1][1][1]]                                          
  O           4.866444            -3.775011             6.253769            0            -0.597823    [8[6[1][1][1]][1]]                                          
  H           4.430609            -2.921144             6.243393            0             0.402573    [1[8[6]]]                                                   
  H           4.396078            -3.482571             8.277853            0             0.031932    [1[6[8][1][1]]]                                             
  H           3.896837            -5.017560             7.602140            0             0.031932    [1[6[8][1][1]]]                                             
  H           5.548066            -4.676643             7.981622            0             0.031932    [1[6[8][1][1]]]                                             
  C           8.209675            -5.522945             9.196623            1             0.099454    [6[8[1]][1][1][1]]                                          
  O           7.015709            -5.491907             9.982829            1            -0.597823    [8[6[1][1][1]][1]]                                          
  H           6.939594            -6.319247             10.420045           1             0.402573    [1[8[6]]]                                                   
  H           8.182729            -6.271335             8.382496            1             0.031932    [1[6[8][1][1]]]                                             
  H           8.183501            -4.633364             8.568439            1             0.031932    [1[6[8][1][1]]]                                             
  H           9.084552            -5.650061             9.844359            1             0.031932    [1[6[8][1][1]]]                                             
