12

  C          -5.106868             5.364977             4.076705            0             0.099454    [6[8[1]][1][1][1]]                                          
  O          -4.860362             6.614453             3.509791            0            -0.597823    [8[6[1][1][1]][1]]                                          
  H          -4.817998             6.497377             2.536860            0             0.402573    [1[8[6]]]                                                   
  H          -6.164157             5.347365             4.411321            0             0.031932    [1[6[8][1][1]]]                                             
  H          -4.952286             4.468046             3.431176            0             0.031932    [1[6[8][1][1]]]                                             
  H          -4.499261             5.272901             4.938925            0             0.031932    [1[6[8][1][1]]]                                             
  C          -2.423555             9.589600             4.384260            1             0.099454    [6[8[1]][1][1][1]]                                          
  O          -2.114661             10.943369            4.153612            1            -0.597823    [8[6[1][1][1]][1]]                                          
  H          -2.578880             11.475667            4.847472            1             0.402573    [1[8[6]]]                                                   
  H          -3.340220             9.227224             3.991830            1             0.031932    [1[6[8][1][1]]]                                             
  H          -1.603882             8.984377             4.046865            1             0.031932    [1[6[8][1][1]]]                                             
  H          -2.506658             9.472759             5.502255            1             0.031932    [1[6[8][1][1]]]                                             
