12

  C          -5.353303             11.069871           -8.863530            0             0.099454    [6[8[1]][1][1][1]]                                          
  O          -6.223960             10.129537           -9.440476            0            -0.597823    [8[6[1][1][1]][1]]                                          
  H          -7.113445             10.492733           -9.573066            0             0.402573    [1[8[6]]]                                                   
  H          -5.404248             12.067274           -9.320768            0             0.031932    [1[6[8][1][1]]]                                             
  H          -5.585512             11.032351           -7.805065            0             0.031932    [1[6[8][1][1]]]                                             
  H          -4.332795             10.687860           -8.945880            0             0.031932    [1[6[8][1][1]]]                                             
  C          -9.932416             10.728433           -10.477990           1             0.099454    [6[8[1]][1][1][1]]                                          
  O          -8.944205             10.670553           -9.493894            1            -0.597823    [8[6[1][1][1]][1]]                                          
  H          -9.483111             10.511934           -8.661298            1             0.402573    [1[8[6]]]                                                   
  H          -9.756294             11.556224           -11.200444           1             0.031932    [1[6[8][1][1]]]                                             
  H          -10.032710            9.830993            -11.101333           1             0.031932    [1[6[8][1][1]]]                                             
  H          -10.874748            10.985070           -9.980425            1             0.031932    [1[6[8][1][1]]]                                             
