17

O          1.15905        2.10305        0.66826
C          1.34846        0.69131        0.59848
C          2.08532        0.20214        1.84108
O          3.36979        0.84113        1.89491
C          4.10407        0.41591        3.05345
C          5.45401        1.12557        3.05964
O          5.25871        2.53740        3.11604
H          2.03914        2.47325        0.86648
H          1.92402        0.47845       -0.30773
H          0.36686        0.21634        0.51765
H          2.21598       -0.88417        1.79521
H          1.52021        0.47141        2.74032
H          4.25047       -0.66885        3.02084
H          3.53557        0.68821        3.94967
H          6.01631        0.90496        2.14696
H          6.04807        0.82470        3.92675
H          4.59982        2.73503        2.42543
