8

Cl         0.99332       -0.16041        0.05092
C          2.77593       -0.08213       -0.11340
Cl         3.30854       -1.33789       -1.27016
C          3.24717        1.33660       -0.47166
Cl         5.03112        1.47872       -0.38140
Cl         2.69999        1.89928       -2.07873
H          3.17780       -0.36988        0.86300
H          2.85429        2.05201        0.25737
