8

C          0.97244       -0.03670        0.07906
C          2.49036       -0.03284        0.07421
Cl         3.10423       -0.66431       -1.47110
Cl         3.10423        1.61485        0.34227
H          0.58460       -1.05114       -0.06426
H          0.56191        0.59584       -0.71595
H          0.58460        0.33091        1.03535
H          2.87977       -0.66904        0.87383
