11

Cl         3.31522        1.60126        0.78685
C          2.79513        0.21178       -0.19506
C          3.46060       -1.08383        0.25811
C          4.97819       -1.11644        0.10881
Cl         5.47844       -0.99619       -1.59422
H          3.00321        0.43925       -1.24349
H          1.70942        0.12907       -0.08081
H          3.02581       -1.91590       -0.31001
H          3.20979       -1.26790        1.30989
H          5.36672       -2.06648        0.48933
H          5.46600       -0.31102        0.66410
