14

Cl         3.32383       -1.69398       -0.09767
C          2.78973       -0.01309        0.13090
C          3.35367        0.91592       -0.93957
C          4.88535        1.00552       -1.00149
C          5.57031        1.46555        0.28227
Cl         5.05058        3.09626        0.76565
H          3.08450        0.30034        1.13657
H          1.69666       -0.01223        0.08761
H          2.93457        1.91670       -0.78463
H          2.98936        0.59079       -1.92330
H          5.15668        1.68803       -1.81651
H          5.29792        0.02931       -1.28211
H          6.65416        1.50254        0.13345
H          5.37039        0.78710        1.11519
