27

C          5.37429        0.44631       -3.82043
C          4.36579       -0.43921       -3.10557
C          3.41158        0.30720       -2.16391
C          4.07102        0.90551       -0.92243
O          4.99775        1.91301       -1.30807
C          5.68468        2.47800       -0.19824
C          6.76906        3.42223       -0.71332
C          6.26631        4.50528       -1.67024
C          5.23067        5.42498       -1.04148
H          5.88630       -0.12759       -4.59988
H          6.14414        0.81538       -3.14080
H          4.88470        1.30136       -4.29799
H          4.89516       -1.22534       -2.55294
H          3.75856       -0.94542       -3.86705
H          2.63835       -0.39720       -1.83339
H          2.90561        1.10041       -2.72866
H          4.58304        0.12068       -0.35480
H          3.30175        1.35510       -0.28700
H          6.15019        1.68586        0.39613
H          4.97197        3.01148        0.44026
H          7.51784        2.82866       -1.25357
H          7.28140        3.88367        0.13857
H          5.84240        4.04577       -2.57136
H          7.12091        5.10835       -1.99650
H          4.32246        4.88137       -0.76538
H          4.94086        6.20783       -1.75213
H          5.63019        5.91005       -0.14671
