15

C          1.02394        0.03826        0.07406
C          2.55161        0.06511        0.09426
C          3.07889        1.41752       -0.38311
C          3.07598       -0.25254        1.49294
O          3.03591       -0.94865       -0.78734
H          0.59844        0.78944        0.74740
H          0.64768       -0.94754        0.37024
H          0.64276        0.22386       -0.93658
H          2.74819        2.23236        0.26914
H          2.74007        1.63156       -1.40318
H          4.17439        1.41957       -0.41436
H          2.74250        0.48776        2.22747
H          4.17163       -0.28104        1.50170
H          2.73886       -1.24271        1.82044
H          2.70548       -0.75243       -1.68062
