21

C          2.65903        1.86706       -0.44664
C          3.57145        0.83620        0.21198
C          2.74499       -0.16035        1.01774
O          4.28492        0.19410       -0.84661
C          5.40853       -0.60651       -0.47270
C          5.90275       -1.27592       -1.75273
C          6.52658        0.23178        0.14013
H          2.09847        2.43766        0.29958
H          1.95072        1.38764       -1.12946
H          3.25077        2.56737       -1.04738
H          4.25998        1.37154        0.87012
H          2.10744       -0.76382        0.36269
H          2.11231        0.35327        1.74883
H          3.38833       -0.85551        1.56525
H          5.09841       -1.39153        0.22514
H          6.15728       -0.52788       -2.51273
H          5.11744       -1.90605       -2.18244
H          6.78364       -1.89922       -1.56612
H          6.70165        1.14142       -0.44437
H          7.46140       -0.33394        0.20688
H          6.26525        0.54698        1.15512
