23

C          3.13865       -0.04198        1.82182
C          2.58498        1.16357        1.08735
O          3.57207        2.20346        1.04294
C          3.96914        2.61397       -0.19278
O          3.57617        2.15767       -1.25859
C          4.91130        3.76906       -0.08873
C          6.22393        3.37653        0.49636
O          6.54112        2.24044        0.82991
O          7.03386        4.46746        0.59943
C          8.33429        4.20557        1.14494
C          8.26146        4.12911        2.65912
H          2.37537       -0.82216        1.90163
H          3.46923        0.22997        2.82941
H          4.00705       -0.45320        1.29732
H          1.72618        1.56614        1.63273
H          2.23734        0.86438        0.09391
H          4.44114        4.55185        0.51724
H          5.07988        4.16724       -1.09559
H          8.98507        5.03327        0.84528
H          8.75925        3.29119        0.71407
H          7.84802        5.05588        3.06963
H          9.25284        3.95977        3.08691
H          7.60100        3.31902        2.98468
