13

C          3.42566        1.96965        0.28391
O          3.46649        0.81851       -0.54851
C          3.78318       -0.35497        0.19120
O          5.12168       -0.35878        0.67480
C          6.06361       -0.42807       -0.38738
H          3.18254        2.83395       -0.33991
H          4.39690        2.14675        0.75523
H          2.64885        1.86371        1.04751
H          3.61876       -1.22630       -0.45242
H          3.10373       -0.45244        1.04602
H          7.06570       -0.47787        0.04714
H          6.00567        0.46526       -1.01646
H          5.90222       -1.32652       -0.99101
