19

C          0.88522       -0.42577       -0.41748
C          2.40578       -0.37823       -0.44911
C          2.99321       -0.13407        0.94103
C          4.52110       -0.09849        0.91167
C          5.12285        0.14605        2.28502
C          6.62646        0.21067        2.35434
O          4.43772        0.26824        3.30111
H          0.48928       -0.55170       -1.43034
H          0.46946        0.49872       -0.00414
H          0.53047       -1.26418        0.19061
H          2.72395        0.41918       -1.13051
H          2.78502       -1.32317       -0.85517
H          2.65624       -0.92039        1.62789
H          2.61280        0.81540        1.33822
H          4.86290        0.70312        0.24724
H          4.91199       -1.05172        0.53868
H          6.99681        0.96186        1.65238
H          7.04621       -0.76936        2.11528
H          6.93759        0.49494        3.36407
