15

C          1.98245        3.35977        0.04989
O          3.35661        2.98916        0.13513
C          3.59546        1.65936       -0.00895
O          2.74912        0.80340       -0.21034
C          5.05312        1.36169        0.12014
C          5.42828       -0.08606        0.01422
C          5.96495        2.32842        0.32348
H          1.90857        4.42389        0.29096
H          1.38127        2.80061        0.77355
H          1.61162        3.20696       -0.96794
H          4.88603       -0.68280        0.75515
H          6.49867       -0.24259        0.18833
H          5.19516       -0.47159       -0.98376
H          5.69105        3.37667        0.39858
H          7.02088        2.09831        0.42025
