9

C          0.90723       -0.05738        0.01681
O          2.32823       -0.06716        0.03996
C          2.82558       -0.58531        1.26635
H          0.58101        0.34871       -0.94434
H          0.51569        0.57876        0.81647
H          0.51569       -1.07418        0.11810
H          3.91806       -0.56965        1.22928
H          2.49503       -1.61889        1.40736
H          2.49503        0.03405        2.10573
