22

C          3.81854       -1.23112        0.33675
C          4.26341       -0.16335        1.33112
N          4.35827        1.19977        0.78124
C          4.67246        2.14272        1.86938
C          4.55101        3.61299        1.48635
C          5.25036        1.31664       -0.38322
C          6.72921        1.02922       -0.13845
H          3.56129       -2.15041        0.87388
H          4.61191       -1.47845       -0.37409
H          2.93107       -0.91298       -0.22116
H          5.21241       -0.47334        1.79005
H          3.51612       -0.15850        2.13418
H          5.66789        1.95230        2.28420
H          3.96118        1.98296        2.69120
H          5.30578        3.91164        0.75208
H          4.69824        4.23652        2.37517
H          3.55898        3.83693        1.08303
H          5.15706        2.32168       -0.81205
H          4.89422        0.65871       -1.18718
H          7.15895        1.70310        0.60717
H          7.29221        1.17071       -1.06733
H          6.89040       -0.00274        0.18856
