12

C          1.01023        0.01265       -0.08431
N          2.45749        0.01252       -0.10187
C          3.17213        0.05529       -1.36156
C          3.17290       -0.02651        1.07724
O          4.39318       -0.02928        1.17057
H          0.59901        0.04601       -1.09601
H          0.66515        0.88263        0.48245
H          0.66440       -0.89237        0.42413
H          2.48215        0.08308       -2.20844
H          3.80936       -0.83103       -1.43788
H          3.80808        0.94564       -1.37841
H          2.52234       -0.05640        1.96778
