28

C          6.49683       -2.02152       -0.18430
C          5.25782       -1.36174        0.40584
C          5.10237        0.14107        0.10340
C          6.22324        1.04782        0.64129
N          5.98840        2.46847        0.32048
C          7.07057        3.33314        0.80910
C          6.88867        4.84066        0.51187
C          5.66550        5.48946        1.16974
C          5.58189        6.98925        0.88917
H          6.36736       -3.11100       -0.20441
H          7.38318       -1.81135        0.42154
H          6.68372       -1.69116       -1.21010
H          5.23951       -1.53694        1.48802
H          4.37934       -1.87856       -0.00300
H          4.14559        0.46114        0.53763
H          5.01006        0.26935       -0.98227
H          7.17802        0.73572        0.19894
H          6.29675        0.91921        1.72749
H          5.09849        2.76434        0.74622
H          8.00739        3.02418        0.32618
H          7.20170        3.20327        1.88982
H          6.84732        4.99926       -0.57307
H          7.78784        5.36214        0.86388
H          5.70214        5.33839        2.25451
H          4.74880        5.02062        0.80082
H          6.45473        7.52243        1.28063
H          4.69137        7.41359        1.36652
H          5.51131        7.18982       -0.18491
