19

C          1.10949       -0.23920       -0.28714
C          2.60396       -0.48665       -0.12840
C          3.08646       -0.47926        1.33485
N          2.45606       -1.54767        2.11140
C          4.61876       -0.62757        1.38040
C          5.19545       -0.57862        2.78999
H          0.85262       -0.17236       -1.34932
H          0.81336        0.69855        0.19273
H          0.51698       -1.05263        0.14280
H          3.13862        0.29341       -0.68413
H          2.85956       -1.44109       -0.60606
H          2.81626        0.48058        1.79332
H          2.62207       -2.44661        1.65996
H          1.44594       -1.41882        2.12866
H          5.07379        0.18252        0.79639
H          4.92390       -1.56786        0.90346
H          4.90703        0.34573        3.30064
H          6.28875       -0.61632        2.74881
H          4.85771       -1.42742        3.39211
