18

C          0.88334        0.19090        0.19223
C          2.37063        0.33103       -0.09155
C          3.20636       -0.52757        0.85785
C          4.69770       -0.40770        0.55035
C          5.53840       -1.25102        1.50035
O          6.91574       -1.11068        1.17915
H          0.30562        0.81752       -0.49453
H          0.64738        0.50095        1.21518
H          0.55556       -0.84555        0.06272
H          2.65828        1.38411        0.00891
H          2.56674        0.03875       -1.12971
H          2.89811       -1.57672        0.77241
H          3.01777       -0.21882        1.89329
H          5.01747        0.63967        0.61699
H          4.89621       -0.71657       -0.48355
H          5.27332       -2.31118        1.43504
H          5.39955       -0.92588        2.53620
H          7.03836       -1.43285        0.26937
