15

C          2.23587       -1.56429       -1.15845
C          2.76448       -0.21303       -0.75526
O          2.68743        0.76035       -1.50413
C          3.42279       -0.10221        0.59023
C          4.88891       -0.42111        0.52142
C          5.83344        0.71898        0.24838
O          5.29145       -1.57873        0.64140
H          1.88521       -1.52744       -2.19362
H          1.39938       -1.83660       -0.51026
H          3.02886       -2.31226       -1.08498
H          2.93571       -0.77900        1.29981
H          3.28087        0.91025        0.98220
H          5.58910        1.18129       -0.71087
H          6.86028        0.34463        0.20899
H          5.75971        1.45544        1.05247
