19

O          2.75879       -0.67805        1.06796
C          2.36923       -0.06713       -0.15366
C          2.69321       -0.98940       -1.32310
C          4.19350       -1.27646       -1.44537
C          4.48598       -2.19755       -2.62931
C          5.97100       -2.51758       -2.74842
O          6.19067       -3.36431       -3.87069
H          2.52219       -0.06234        1.78297
H          2.89141        0.88988       -0.25236
H          1.29191        0.12308       -0.11466
H          2.32683       -0.53360       -2.25019
H          2.16197       -1.93945       -1.18794
H          4.56080       -1.74303       -0.52366
H          4.73827       -0.33280       -1.56986
H          4.13879       -1.73718       -3.56283
H          3.92113       -3.13287       -2.52828
H          6.34346       -3.02494       -1.85345
H          6.55626       -1.60556       -2.89565
H          5.67786       -4.17750       -3.72680
