13

C          0.92805        0.09182        0.01024
C          2.45352        0.08035       -0.00715
C          2.98098       -1.12568       -0.77920
N          2.94278        1.32058       -0.60763
H          0.54135       -0.81660        0.48480
H          0.51308        0.14381       -1.00268
H          0.54819        0.94960        0.57615
H          2.81705        0.02918        1.02492
H          2.64167       -1.11691       -1.82116
H          2.63399       -2.05820       -0.32117
H          4.07651       -1.14359       -0.78022
H          2.62961        1.38312       -1.57570
H          3.96159        1.30519       -0.64231
