10

C          0.93148        0.05505       -0.05654
C          2.43620        0.07216       -0.04068
C          3.16835       -0.89240       -0.93416
O          3.05195        0.85458        0.68407
H          0.55271       -0.69677       -0.75294
H          0.56504        1.03563       -0.37061
H          0.56504       -0.18319        0.94518
H          2.47024       -1.50895       -1.50527
H          3.78974       -1.54903       -0.32001
H          3.78974       -0.33021       -1.63579
