7

C          1.06518       -0.08091       -0.05687
C          2.40303       -0.02907       -0.03515
C          3.10603        1.09396        0.43541
N          3.68154        2.01332        0.82062
H          0.54901       -0.96183       -0.42598
H          0.45394        0.74811        0.29049
H          2.98667       -0.87198       -0.38833
