13

C          0.92793       -0.10804        0.02943
C          2.44820       -0.07055        0.00572
C          2.96301        0.99552       -0.95808
N          4.42101        1.00579       -0.96950
H          0.57860       -0.87756        0.72496
H          0.52567       -0.33859       -0.96224
H          0.51684        0.85376        0.35240
H          2.82562       -1.05754       -0.28822
H          2.81605        0.12790        1.01976
H          2.59524        1.98407       -0.66175
H          2.59959        0.79458       -1.97157
H          4.77033        1.22039       -0.03637
H          4.74887        1.75575       -1.57672
