9

C          0.91918       -0.04970        0.00533
C          2.43876       -0.04283       -0.03957
C          2.92009        0.16301       -1.38534
N          3.30376        0.32708       -2.45805
H          0.56849       -0.20650        1.03053
H          0.50834       -0.84928       -0.62085
H          0.50834        0.90050       -0.35322
H          2.81449       -0.99347        0.35464
H          2.81449        0.74652        0.62077
