14

O          2.85199       -0.91282       -0.67809
C          2.40078        0.22463        0.05963
C          3.11909        0.26458        1.40831
O          2.90374       -0.98274        2.09324
C          4.62990        0.46163        1.26087
O          5.22740        0.51031        2.55823
H          2.35710       -0.91869       -1.51753
H          1.32287        0.10861        0.21047
H          2.59240        1.13024       -0.52348
H          2.70127        1.05395        2.04174
H          3.00402       -1.66977        1.40221
H          4.86218        1.39588        0.74157
H          5.09477       -0.37094        0.72327
H          4.79697       -0.20643        3.06611
