12

  C           6.086307            -8.339000            -1.950974            0             0.099454    [6[8[1]][1][1][1]]                                          
  O           7.119211            -9.239033            -2.344616            0            -0.597823    [8[6[1][1][1]][1]]                                          
  H           7.924299            -8.996173            -1.920066            0             0.402573    [1[8[6]]]                                                   
  H           5.204355            -8.539009            -2.582275            0             0.031932    [1[6[8][1][1]]]                                             
  H           5.796177            -8.560167            -0.931467            0             0.031932    [1[6[8][1][1]]]                                             
  H           6.260960            -7.216122            -2.022520            0             0.031932    [1[6[8][1][1]]]                                             
  C           8.739010            -7.472333             0.384372            1             0.099454    [6[8[1]][1][1][1]]                                          
  O           9.423691            -8.127046            -0.704583            1            -0.597823    [8[6[1][1][1]][1]]                                          
  H           10.321739           -8.330021            -0.494526            1             0.402573    [1[8[6]]]                                                   
  H           8.843660            -8.055029             1.293101            1             0.031932    [1[6[8][1][1]]]                                             
  H           9.152455            -6.457081             0.466172            1             0.031932    [1[6[8][1][1]]]                                             
  H           7.672785            -7.384907             0.144877            1             0.031932    [1[6[8][1][1]]]                                             
