19

C  1.11113000          -0.16084000          -0.25611000         
C  2.61296000          -0.41209000          -0.11830000         
C  3.06016000          -0.66504000           1.34136000         
N  2.41462000          -1.85255000           1.90879000         
C  4.59209000          -0.83033000           1.39510000         
C  5.10528000          -0.99143000           2.82608000         
H  0.87168000           0.06186000          -1.31744000         
H  0.80601000           0.70678000           0.36674000         
H  0.52623000          -1.05503000           0.04187000         
H  3.14026000           0.48993000          -0.49954000         
H  2.89498000          -1.27590000          -0.75943000         
H  2.78692000           0.22354000           1.95445000         
H  2.56428000          -2.68138000           1.28767000         
H  1.38992000          -1.69173000           2.03407000         
H  5.07620000           0.06972000           0.95693000         
H  4.89720000          -1.71769000           0.79777000         
H  6.21086000          -1.09538000           2.81379000         
H  4.67329000          -1.89750000           3.30079000         
H  4.83942000          -0.09925000           3.43223000         
