12

  C           0.527698             1.859503             9.663229            0             0.099454    [6[8[1]][1][1][1]]                                          
  O           0.594535             0.604207             10.339565           0            -0.597823    [8[6[1][1][1]][1]]                                          
  H           1.417129             0.142972             9.950281            0             0.402573    [1[8[6]]]                                                   
  H           0.246686             1.908735             8.587147            0             0.031932    [1[6[8][1][1]]]                                             
  H          -0.322910             2.327679             10.124349           0             0.031932    [1[6[8][1][1]]]                                             
  H           1.373423             2.534069             9.816187            0             0.031932    [1[6[8][1][1]]]                                             
  C          -0.190552            -1.346349             7.638156            1             0.099454    [6[8[1]][1][1][1]]                                          
  O          -0.224249            -1.612135             6.254584            1            -0.597823    [8[6[1][1][1]][1]]                                          
  H          -0.894124            -2.259526             6.100386            1             0.402573    [1[8[6]]]                                                   
  H          -0.148998            -2.211394             8.212019            1             0.031932    [1[6[8][1][1]]]                                             
  H           0.737630            -0.846319             7.968315            1             0.031932    [1[6[8][1][1]]]                                             
  H          -1.056056            -0.711829             7.991936            1             0.031932    [1[6[8][1][1]]]                                             
