12

  C           5.737814            -6.792202             4.012589            0             0.099454    [6[8[1]][1][1][1]]                                          
  O           4.642197            -7.192453             3.223775            0            -0.597823    [8[6[1][1][1]][1]]                                          
  H           3.849765            -6.864474             3.676815            0             0.402573    [1[8[6]]]                                                   
  H           6.603623            -7.244640             3.633068            0             0.031932    [1[6[8][1][1]]]                                             
  H           5.796332            -5.719068             4.113003            0             0.031932    [1[6[8][1][1]]]                                             
  H           5.644942            -7.132266             5.028861            0             0.031932    [1[6[8][1][1]]]                                             
  C           3.521563            -8.395177             6.505984            1             0.099454    [6[8[1]][1][1][1]]                                          
  O           2.803893            -7.956454             5.383226            1            -0.597823    [8[6[1][1][1]][1]]                                          
  H           2.484946            -7.127804             5.680847            1             0.402573    [1[8[6]]]                                                   
  H           2.867925            -8.568424             7.366260            1             0.031932    [1[6[8][1][1]]]                                             
  H           3.884699            -9.352271             6.189371            1             0.031932    [1[6[8][1][1]]]                                             
  H           4.433381            -7.748269             6.774794            1             0.031932    [1[6[8][1][1]]]                                             
