6
Indices: 0 1 2 3 4 5
C             3.01140557751771    -1.18089340335266     0.59851134368678    [6[8[1]][1][1][1]]
O             4.39457488988650    -1.12805375862760     0.87428796820303    [8[6[1][1][1]][1]]
H             4.77209800095068    -0.37902561984894     0.41247356582403    [1[8[6]]]
H             2.80653227946763    -1.31896112956165    -0.46933012808328    [1[6[8][1][1]]]
H             2.61173005799273    -2.04026123110754     1.13591790604584    [1[6[8][1][1]]]
H             2.48485519615738    -0.28448736986110     0.94567842324323    [1[6[8][1][1]]]
