12

  C           5.509219            -5.286384            -2.629828            0             0.099454    [6[8[1]][1][1][1]]                                          
  O           6.356411            -4.322206            -3.312786            0            -0.597823    [8[6[1][1][1]][1]]                                          
  H           5.806492            -3.659072            -3.753185            0             0.402573    [1[8[6]]]                                                   
  H           4.710320            -5.785805            -3.279945            0             0.031932    [1[6[8][1][1]]]                                             
  H           6.199272            -6.152955            -2.356879            0             0.031932    [1[6[8][1][1]]]                                             
  H           4.910016            -4.863904            -1.771712            0             0.031932    [1[6[8][1][1]]]                                             
  C           0.511696            -5.035724            -4.414051            1             0.099454    [6[8[1]][1][1][1]]                                          
  O          -0.461981            -4.010277            -4.344628            1            -0.597823    [8[6[1][1][1]][1]]                                          
  H          -0.624218            -3.699652            -5.237201            1             0.402573    [1[8[6]]]                                                   
  H           1.403724            -4.777239            -4.950176            1             0.031932    [1[6[8][1][1]]]                                             
  H           0.839149            -5.174836            -3.425856            1             0.031932    [1[6[8][1][1]]]                                             
  H           0.079656            -5.903460            -4.905516            1             0.031932    [1[6[8][1][1]]]                                             
