12

  C          -1.655024            -2.622084             6.139946            0             0.099454    [6[8[1]][1][1][1]]                                          
  O          -1.531129            -1.834300             7.361114            0            -0.597823    [8[6[1][1][1]][1]]                                          
  H          -1.541727            -0.877771             7.056035            0             0.402573    [1[8[6]]]                                                   
  H          -0.878289            -3.404570             6.044544            0             0.031932    [1[6[8][1][1]]]                                             
  H          -2.657406            -3.054466             5.974632            0             0.031932    [1[6[8][1][1]]]                                             
  H          -1.310091            -2.022872             5.289386            0             0.031932    [1[6[8][1][1]]]                                             
  C          -3.154112             1.021255             8.295838            1             0.099454    [6[8[1]][1][1][1]]                                          
  O          -2.076771             1.277094             7.378946            1            -0.597823    [8[6[1][1][1]][1]]                                          
  H          -1.328674             1.533873             7.973581            1             0.402573    [1[8[6]]]                                                   
  H          -3.482555            -0.035456             8.307757            1             0.031932    [1[6[8][1][1]]]                                             
  H          -2.847816             1.249508             9.316630            1             0.031932    [1[6[8][1][1]]]                                             
  H          -4.133166             1.517679             7.981497            1             0.031932    [1[6[8][1][1]]]                                             
