12

  C           2.644582            -4.496149             4.921701            0             0.099454    [6[8[1]][1][1][1]]                                          
  O           1.571882            -5.465876             5.016327            0            -0.597823    [8[6[1][1][1]][1]]                                          
  H           0.734321            -5.043278             5.354497            0             0.402573    [1[8[6]]]                                                   
  H           3.257729            -4.554362             5.857195            0             0.031932    [1[6[8][1][1]]]                                             
  H           3.420873            -4.747145             4.172869            0             0.031932    [1[6[8][1][1]]]                                             
  H           2.283139            -3.498105             4.678804            0             0.031932    [1[6[8][1][1]]]                                             
  C          -1.246376            -6.785112             3.235569            1             0.099454    [6[8[1]][1][1][1]]                                          
  O          -1.731775            -5.723574             2.361640            1            -0.597823    [8[6[1][1][1]][1]]                                          
  H          -2.029969            -6.162378             1.487465            1             0.402573    [1[8[6]]]                                                   
  H          -1.333332            -7.757998             2.824304            1             0.031932    [1[6[8][1][1]]]                                             
  H          -0.201581            -6.541920             3.488338            1             0.031932    [1[6[8][1][1]]]                                             
  H          -1.815348            -6.841643             4.134731            1             0.031932    [1[6[8][1][1]]]                                             
