12

  C           10.424689            7.607292             11.237565           0             0.099454    [6[8[1]][1][1][1]]                                          
  O           8.987239             7.684693             11.242529           0            -0.597823    [8[6[1][1][1]][1]]                                          
  H           8.522733             6.897502             11.639982           0             0.402573    [1[8[6]]]                                                   
  H           10.849357            6.670310             10.831125           0             0.031932    [1[6[8][1][1]]]                                             
  H           10.787197            8.526686             10.749590           0             0.031932    [1[6[8][1][1]]]                                             
  H           10.760765            7.762584             12.219175           0             0.031932    [1[6[8][1][1]]]                                             
  C           5.849089             5.190941             8.767723            1             0.099454    [6[8[1]][1][1][1]]                                          
  O           4.550791             5.140373             9.206326            1            -0.597823    [8[6[1][1][1]][1]]                                          
  H           4.169133             6.010848             9.327686            1             0.402573    [1[8[6]]]                                                   
  H           6.534993             5.393492             9.597090            1             0.031932    [1[6[8][1][1]]]                                             
  H           6.229892             4.328461             8.286398            1             0.031932    [1[6[8][1][1]]]                                             
  H           6.007129             6.055441             8.094881            1             0.031932    [1[6[8][1][1]]]                                             
