13

C  0.92172000          -0.10718000           0.02948000         
C  2.44641000          -0.07351000           0.00779000         
C  2.96573000           0.99094000          -0.96175000         
N  4.42430000           1.01024000          -0.95916000         
H  0.57645000          -0.88978000           0.73772000         
H  0.52828000          -0.34446000          -0.98182000         
H  0.51879000           0.87403000           0.35905000         
H  2.82125000          -1.07271000          -0.30277000         
H  2.81742000           0.14933000           1.03182000         
H  2.59308000           1.98895000          -0.64291000         
H  2.59648000           0.78031000          -1.99093000         
H  4.74629000           1.75976000          -1.61396000         
H  4.78360000           0.09399000          -1.31535000         
