12

  C           8.949076            -5.978823             1.374421            0             0.099454    [6[8[1]][1][1][1]]                                          
  O           8.061541            -5.195316             2.119433            0            -0.597823    [8[6[1][1][1]][1]]                                          
  H           7.149420            -5.531842             2.087189            0             0.402573    [1[8[6]]]                                                   
  H           8.545516            -6.842409             0.887766            0             0.031932    [1[6[8][1][1]]]                                             
  H           9.373425            -5.345801             0.537664            0             0.031932    [1[6[8][1][1]]]                                             
  H           9.797121            -6.359743             1.900939            0             0.031932    [1[6[8][1][1]]]                                             
  C           5.969071            -3.405384            -0.265019            1             0.099454    [6[8[1]][1][1][1]]                                          
  O           7.102068            -2.889357            -0.942927            1            -0.597823    [8[6[1][1][1]][1]]                                          
  H           7.118643            -1.956619            -0.879665            1             0.402573    [1[8[6]]]                                                   
  H           6.277044            -3.784139             0.691122            1             0.031932    [1[6[8][1][1]]]                                             
  H           5.188285            -2.625284            -0.197412            1             0.031932    [1[6[8][1][1]]]                                             
  H           5.445635            -4.273494            -0.690587            1             0.031932    [1[6[8][1][1]]]                                             
