12

  C           7.874232            -11.071143            3.966624            0             0.099454    [6[8[1]][1][1][1]]                                          
  O           7.687014            -11.846176            5.116566            0            -0.597823    [8[6[1][1][1]][1]]                                          
  H           7.956098            -12.702588            4.813071            0             0.402573    [1[8[6]]]                                                   
  H           7.097583            -10.318167            3.915558            0             0.031932    [1[6[8][1][1]]]                                             
  H           8.832153            -10.564399            3.880598            0             0.031932    [1[6[8][1][1]]]                                             
  H           7.813907            -11.598509            3.043541            0             0.031932    [1[6[8][1][1]]]                                             
  C           3.227539            -9.389747             1.845262            1             0.099454    [6[8[1]][1][1][1]]                                          
  O           3.765113            -10.424615            2.663280            1            -0.597823    [8[6[1][1][1]][1]]                                          
  H           4.619003            -10.656900            2.268838            1             0.402573    [1[8[6]]]                                                   
  H           2.125311            -9.274752             1.876261            1             0.031932    [1[6[8][1][1]]]                                             
  H           3.707368            -8.437621             2.131932            1             0.031932    [1[6[8][1][1]]]                                             
  H           3.403514            -9.597160             0.761879            1             0.031932    [1[6[8][1][1]]]                                             
