12

  C           3.470945            -7.871248            -6.865342            0             0.099454    [6[8[1]][1][1][1]]                                          
  O           3.665469            -6.548684            -6.468324            0            -0.597823    [8[6[1][1][1]][1]]                                          
  H           4.557768            -6.491265            -6.276443            0             0.402573    [1[8[6]]]                                                   
  H           4.387833            -8.448434            -6.996690            0             0.031932    [1[6[8][1][1]]]                                             
  H           2.867998            -8.443827            -6.204691            0             0.031932    [1[6[8][1][1]]]                                             
  H           2.986948            -7.961744            -7.814579            0             0.031932    [1[6[8][1][1]]]                                             
  C           7.155881            -8.393305            -8.018918            1             0.099454    [6[8[1]][1][1][1]]                                          
  O           6.341864            -7.327575            -7.522887            1            -0.597823    [8[6[1][1][1]][1]]                                          
  H           6.588646            -6.480897            -7.857293            1             0.402573    [1[8[6]]]                                                   
  H           8.161152            -8.078132            -8.027653            1             0.031932    [1[6[8][1][1]]]                                             
  H           7.060098            -9.355730            -7.427923            1             0.031932    [1[6[8][1][1]]]                                             
  H           6.875067            -8.735039            -9.032250            1             0.031932    [1[6[8][1][1]]]                                             
