12

  C           6.149197             0.279348            -9.433511            0             0.099454    [6[8[1]][1][1][1]]                                          
  O           5.689921            -0.889510            -10.169131           0            -0.597823    [8[6[1][1][1]][1]]                                          
  H           5.935280            -1.668389            -9.656727            0             0.402573    [1[8[6]]]                                                   
  H           7.211657             0.500550            -9.393534            0             0.031932    [1[6[8][1][1]]]                                             
  H           5.712407             1.245952            -9.815995            0             0.031932    [1[6[8][1][1]]]                                             
  H           5.875382             0.154037            -8.369263            0             0.031932    [1[6[8][1][1]]]                                             
  C           6.835082             3.846317            -8.826568            1             0.099454    [6[8[1]][1][1][1]]                                          
  O           7.782450             3.576878            -9.885194            1            -0.597823    [8[6[1][1][1]][1]]                                          
  H           8.552816             3.207707            -9.439110            1             0.402573    [1[8[6]]]                                                   
  H           6.576839             2.941924            -8.234913            1             0.031932    [1[6[8][1][1]]]                                             
  H           7.180840             4.703544            -8.205151            1             0.031932    [1[6[8][1][1]]]                                             
  H           5.885759             4.173400            -9.286453            1             0.031932    [1[6[8][1][1]]]                                             
