12

  C           2.263257            -4.148155             5.412082            0             0.099454    [6[8[1]][1][1][1]]                                          
  O           2.954997            -4.750595             6.535683            0            -0.597823    [8[6[1][1][1]][1]]                                          
  H           3.854224            -4.751128             6.203519            0             0.402573    [1[8[6]]]                                                   
  H           2.189910            -3.055356             5.686844            0             0.031932    [1[6[8][1][1]]]                                             
  H           2.686634            -4.323060             4.395248            0             0.031932    [1[6[8][1][1]]]                                             
  H           1.297417            -4.690642             5.387383            0             0.031932    [1[6[8][1][1]]]                                             
  C           3.000813            -5.041228             10.565533           1             0.099454    [6[8[1]][1][1][1]]                                          
  O           2.407379            -6.339526             10.869800           1            -0.597823    [8[6[1][1][1]][1]]                                          
  H           2.625145            -6.452515             11.794935           1             0.402573    [1[8[6]]]                                                   
  H           2.971662            -4.819013             9.434081            1             0.031932    [1[6[8][1][1]]]                                             
  H           2.508815            -4.257876             11.166867           1             0.031932    [1[6[8][1][1]]]                                             
  H           4.081495            -5.035408             10.772645           1             0.031932    [1[6[8][1][1]]]                                             
