12

  C           9.510002             3.753170            -5.325528            0             0.099454    [6[8[1]][1][1][1]]                                          
  O           9.876401             4.225670            -4.068210            0            -0.597823    [8[6[1][1][1]][1]]                                          
  H           10.364098            5.018810            -4.265636            0             0.402573    [1[8[6]]]                                                   
  H           8.978419             2.857762            -5.197583            0             0.031932    [1[6[8][1][1]]]                                             
  H           8.779346             4.325251            -5.874902            0             0.031932    [1[6[8][1][1]]]                                             
  H           10.363160            3.582555            -6.031037            0             0.031932    [1[6[8][1][1]]]                                             
  C           5.421952             4.296284            -8.629715            1             0.099454    [6[8[1]][1][1][1]]                                          
  O           4.177943             4.330859            -7.945690            1            -0.597823    [8[6[1][1][1]][1]]                                          
  H           3.759411             3.478553            -7.920667            1             0.402573    [1[8[6]]]                                                   
  H           5.294715             3.661968            -9.550154            1             0.031932    [1[6[8][1][1]]]                                             
  H           5.762079             5.348298            -8.977451            1             0.031932    [1[6[8][1][1]]]                                             
  H           6.121302             3.829732            -7.913418            1             0.031932    [1[6[8][1][1]]]                                             
