12

  C           7.027536             3.700445             1.588677            0             0.099454    [6[8[1]][1][1][1]]                                          
  O           7.121738             4.093266             0.247516            0            -0.597823    [8[6[1][1][1]][1]]                                          
  H           7.366341             3.333908            -0.299382            0             0.402573    [1[8[6]]]                                                   
  H           8.023769             3.471064             2.076743            0             0.031932    [1[6[8][1][1]]]                                             
  H           6.544191             4.464693             2.197487            0             0.031932    [1[6[8][1][1]]]                                             
  H           6.420623             2.848499             1.708700            0             0.031932    [1[6[8][1][1]]]                                             
  C           5.256442             3.173701             4.330914            1             0.099454    [6[8[1]][1][1][1]]                                          
  O           5.647779             3.333847             5.672779            1            -0.597823    [8[6[1][1][1]][1]]                                          
  H           4.899699             3.045901             6.165063            1             0.402573    [1[8[6]]]                                                   
  H           5.243303             4.136426             3.826357            1             0.031932    [1[6[8][1][1]]]                                             
  H           5.965825             2.565790             3.787552            1             0.031932    [1[6[8][1][1]]]                                             
  H           4.380051             2.629932             4.138270            1             0.031932    [1[6[8][1][1]]]                                             
