12

  C          -7.384591            -5.803450            -3.268758            0             0.099454    [6[8[1]][1][1][1]]                                          
  O          -6.320142            -6.327695            -2.550983            0            -0.597823    [8[6[1][1][1]][1]]                                          
  H          -5.901000            -5.572593            -2.211143            0             0.402573    [1[8[6]]]                                                   
  H          -7.027067            -4.995892            -3.920319            0             0.031932    [1[6[8][1][1]]]                                             
  H          -7.912776            -6.587076            -3.837397            0             0.031932    [1[6[8][1][1]]]                                             
  H          -8.019997            -5.265419            -2.574121            0             0.031932    [1[6[8][1][1]]]                                             
  C          -5.752670            -2.614842            -0.937438            1             0.099454    [6[8[1]][1][1][1]]                                          
  O          -5.811295            -3.348230            -2.117618            1            -0.597823    [8[6[1][1][1]][1]]                                          
  H          -6.084452            -2.675142            -2.728560            1             0.402573    [1[8[6]]]                                                   
  H          -6.751639            -2.518211            -0.460841            1             0.031932    [1[6[8][1][1]]]                                             
  H          -5.101315            -3.075531            -0.228291            1             0.031932    [1[6[8][1][1]]]                                             
  H          -5.384440            -1.549916            -1.038424            1             0.031932    [1[6[8][1][1]]]                                             
