12

  C           3.428928             8.666497             5.285069            0             0.099454    [6[8[1]][1][1][1]]                                          
  O           4.762131             8.230754             5.347500            0            -0.597823    [8[6[1][1][1]][1]]                                          
  H           4.851017             7.570642             4.577961            0             0.402573    [1[8[6]]]                                                   
  H           3.003292             8.738284             4.342669            0             0.031932    [1[6[8][1][1]]]                                             
  H           2.793504             7.932422             5.811546            0             0.031932    [1[6[8][1][1]]]                                             
  H           3.320919             9.639837             5.807513            0             0.031932    [1[6[8][1][1]]]                                             
  C          -0.726115             9.795292             5.714194            1             0.099454    [6[8[1]][1][1][1]]                                          
  O          -1.311532             8.737187             6.403669            1            -0.597823    [8[6[1][1][1]][1]]                                          
  H          -1.031756             7.864205             5.971281            1             0.402573    [1[8[6]]]                                                   
  H           0.333128             9.943039             6.016875            1             0.031932    [1[6[8][1][1]]]                                             
  H          -0.649164             9.690465             4.597876            1             0.031932    [1[6[8][1][1]]]                                             
  H          -1.278986             10.773929            5.824933            1             0.031932    [1[6[8][1][1]]]                                             
