12

  C           10.677897            9.797862             9.342394            0             0.099454    [6[8[1]][1][1][1]]                                          
  O           9.896940             9.462285             10.426199           0            -0.597823    [8[6[1][1][1]][1]]                                          
  H           9.168333             8.870181             10.291946           0             0.402573    [1[8[6]]]                                                   
  H           10.150146            10.491683            8.673961            0             0.031932    [1[6[8][1][1]]]                                             
  H           11.547956            10.325346            9.611943            0             0.031932    [1[6[8][1][1]]]                                             
  H           11.000104            8.933296             8.888553            0             0.031932    [1[6[8][1][1]]]                                             
  C           7.552119             9.311828             7.302262            1             0.099454    [6[8[1]][1][1][1]]                                          
  O           8.424865             8.236873             7.635050            1            -0.597823    [8[6[1][1][1]][1]]                                          
  H           8.038297             7.903594             8.514994            1             0.402573    [1[8[6]]]                                                   
  H           6.469145             9.194875             7.344775            1             0.031932    [1[6[8][1][1]]]                                             
  H           7.737204             10.092626            8.002545            1             0.031932    [1[6[8][1][1]]]                                             
  H           7.867313             9.844927             6.504650            1             0.031932    [1[6[8][1][1]]]                                             
