12

  C           8.152796             8.556054            -5.321419            0             0.099454    [6[8[1]][1][1][1]]                                          
  O           6.909219             9.044673            -4.812207            0            -0.597823    [8[6[1][1][1]][1]]                                          
  H           6.285718             8.702034            -5.470259            0             0.402573    [1[8[6]]]                                                   
  H           8.064256             8.349003            -6.365875            0             0.031932    [1[6[8][1][1]]]                                             
  H           9.010342             9.257000            -5.240811            0             0.031932    [1[6[8][1][1]]]                                             
  H           8.377186             7.606242            -4.788367            0             0.031932    [1[6[8][1][1]]]                                             
  C           6.482601             7.842035            -1.496625            1             0.099454    [6[8[1]][1][1][1]]                                          
  O           5.451297             7.279990            -2.213697            1            -0.597823    [8[6[1][1][1]][1]]                                          
  H           5.302266             7.795353            -3.038521            1             0.402573    [1[8[6]]]                                                   
  H           7.370266             7.345764            -1.568673            1             0.031932    [1[6[8][1][1]]]                                             
  H           6.736706             8.879642            -1.829562            1             0.031932    [1[6[8][1][1]]]                                             
  H           6.207652             7.865627            -0.439105            1             0.031932    [1[6[8][1][1]]]                                             
