12

  C           7.027536             3.700445             1.588677            0             0.099454    [6[8[1]][1][1][1]]                                          
  O           7.121738             4.093266             0.247516            0            -0.597823    [8[6[1][1][1]][1]]                                          
  H           7.366341             3.333908            -0.299382            0             0.402573    [1[8[6]]]                                                   
  H           8.023769             3.471064             2.076743            0             0.031932    [1[6[8][1][1]]]                                             
  H           6.544191             4.464693             2.197487            0             0.031932    [1[6[8][1][1]]]                                             
  H           6.420623             2.848499             1.708700            0             0.031932    [1[6[8][1][1]]]                                             
  C           10.598297            2.837385            -1.801896            1             0.099454    [6[8[1]][1][1][1]]                                          
  O           9.379781             3.385239            -1.482951            1            -0.597823    [8[6[1][1][1]][1]]                                          
  H           9.251129             4.139549            -2.120449            1             0.402573    [1[8[6]]]                                                   
  H           10.914625            2.204961            -0.999284            1             0.031932    [1[6[8][1][1]]]                                             
  H           10.628990            2.281580            -2.793136            1             0.031932    [1[6[8][1][1]]]                                             
  H           11.305323            3.649385            -1.894489            1             0.031932    [1[6[8][1][1]]]                                             
