12

  C           5.188788             2.614549            -0.430988            0             0.099454    [6[8[1]][1][1][1]]                                          
  O           4.272714             3.629414            -0.212891            0            -0.597823    [8[6[1][1][1]][1]]                                          
  H           4.735754             4.461235            -0.188900            0             0.402573    [1[8[6]]]                                                   
  H           5.899015             2.492255             0.391204            0             0.031932    [1[6[8][1][1]]]                                             
  H           4.718363             1.670627            -0.695147            0             0.031932    [1[6[8][1][1]]]                                             
  H           5.822392             2.953750            -1.309417            0             0.031932    [1[6[8][1][1]]]                                             
  C           9.594464             4.031848            -3.485780            1             0.099454    [6[8[1]][1][1][1]]                                          
  O           9.433977             3.221107            -4.602122            1            -0.597823    [8[6[1][1][1]][1]]                                          
  H           8.485264             3.237819            -4.857603            1             0.402573    [1[8[6]]]                                                   
  H           10.137413            4.976285            -3.732843            1             0.031932    [1[6[8][1][1]]]                                             
  H           8.576874             4.279058            -3.077147            1             0.031932    [1[6[8][1][1]]]                                             
  H           10.282381            3.611429            -2.695346            1             0.031932    [1[6[8][1][1]]]                                             
