12

  C          -4.140601             4.017611            -3.706493            0             0.099454    [6[8[1]][1][1][1]]                                          
  O          -4.263904             3.967901            -2.364951            0            -0.597823    [8[6[1][1][1]][1]]                                          
  H          -5.079723             4.217883            -1.945731            0             0.402573    [1[8[6]]]                                                   
  H          -4.671570             3.223314            -4.151186            0             0.031932    [1[6[8][1][1]]]                                             
  H          -4.523097             4.919380            -4.129298            0             0.031932    [1[6[8][1][1]]]                                             
  H          -3.104929             3.963434            -3.947013            0             0.031932    [1[6[8][1][1]]]                                             
  C          -7.280844             6.258362            -1.869373            1             0.099454    [6[8[1]][1][1][1]]                                          
  O          -6.851826             4.897914            -1.855006            1            -0.597823    [8[6[1][1][1]][1]]                                          
  H          -6.765872             4.622303            -0.926568            1             0.402573    [1[8[6]]]                                                   
  H          -6.437297             6.972732            -1.824910            1             0.031932    [1[6[8][1][1]]]                                             
  H          -7.547841             6.518450            -2.920986            1             0.031932    [1[6[8][1][1]]]                                             
  H          -8.073158             6.482182            -1.205432            1             0.031932    [1[6[8][1][1]]]                                             
