12

  C           2.150202            -4.868944             5.313812            0             0.099454    [6[8[1]][1][1][1]]                                          
  O           1.539903            -3.847500             6.025287            0            -0.597823    [8[6[1][1][1]][1]]                                          
  H           1.102995            -3.372393             5.293624            0             0.402573    [1[8[6]]]                                                   
  H           2.596078            -5.698066             5.913052            0             0.031932    [1[6[8][1][1]]]                                             
  H           1.498631            -5.241180             4.529990            0             0.031932    [1[6[8][1][1]]]                                             
  H           2.939477            -4.406176             4.686918            0             0.031932    [1[6[8][1][1]]]                                             
  C           1.309229            -1.618359             3.048068            1             0.099454    [6[8[1]][1][1][1]]                                          
  O           0.618711            -2.653348             3.660415            1            -0.597823    [8[6[1][1][1]][1]]                                          
  H           0.034684            -2.996127             2.985988            1             0.402573    [1[8[6]]]                                                   
  H           1.705704            -1.835364             2.022964            1             0.031932    [1[6[8][1][1]]]                                             
  H           0.725643            -0.628895             2.983214            1             0.031932    [1[6[8][1][1]]]                                             
  H           2.138539            -1.223666             3.657437            1             0.031932    [1[6[8][1][1]]]                                             
