12

  C          -8.719428            -0.806688             2.256153            0             0.099454    [6[8[1]][1][1][1]]                                          
  O          -10.041191           -1.234781             2.494380            0            -0.597823    [8[6[1][1][1]][1]]                                          
  H          -10.144787           -1.521010             3.361301            0             0.402573    [1[8[6]]]                                                   
  H          -8.220031            -0.383521             3.209562            0             0.031932    [1[6[8][1][1]]]                                             
  H          -8.128405            -1.587988             1.732554            0             0.031932    [1[6[8][1][1]]]                                             
  H          -8.726105             0.059084             1.528395            0             0.031932    [1[6[8][1][1]]]                                             
  C          -6.565968            -3.021015            -0.286961            1             0.099454    [6[8[1]][1][1][1]]                                          
  O          -7.870317            -2.524230            -0.457635            1            -0.597823    [8[6[1][1][1]][1]]                                          
  H          -8.464050            -3.263168            -0.428365            1             0.402573    [1[8[6]]]                                                   
  H          -6.375784            -3.424887             0.682798            1             0.031932    [1[6[8][1][1]]]                                             
  H          -6.358553            -3.812381            -1.019314            1             0.031932    [1[6[8][1][1]]]                                             
  H          -5.921900            -2.184792            -0.507281            1             0.031932    [1[6[8][1][1]]]                                             
