12

  C           0.999467            -9.027304            -3.912011            0             0.099454    [6[8[1]][1][1][1]]                                          
  O           2.186414            -9.130388            -3.186209            0            -0.597823    [8[6[1][1][1]][1]]                                          
  H           2.083546            -9.885682            -2.567494            0             0.402573    [1[8[6]]]                                                   
  H           0.950091            -9.809537            -4.582821            0             0.031932    [1[6[8][1][1]]]                                             
  H           0.089306            -9.087572            -3.267712            0             0.031932    [1[6[8][1][1]]]                                             
  H           0.963477            -8.154280            -4.573107            0             0.031932    [1[6[8][1][1]]]                                             
  C           4.859800            -5.892297            -4.253619            1             0.099454    [6[8[1]][1][1][1]]                                          
  O           4.321151            -4.666534            -4.741819            1            -0.597823    [8[6[1][1][1]][1]]                                          
  H           4.981520            -3.996794            -4.816819            1             0.402573    [1[8[6]]]                                                   
  H           5.316835            -5.818093            -3.271815            1             0.031932    [1[6[8][1][1]]]                                             
  H           4.069458            -6.661182            -4.133229            1             0.031932    [1[6[8][1][1]]]                                             
  H           5.564534            -6.266359            -4.983089            1             0.031932    [1[6[8][1][1]]]                                             
