12

  C           6.939438             8.381128             7.470866            0             0.099454    [6[8[1]][1][1][1]]                                          
  O           6.725867             7.125149             6.925908            0            -0.597823    [8[6[1][1][1]][1]]                                          
  H           6.458362             6.563001             7.707976            0             0.402573    [1[8[6]]]                                                   
  H           6.795791             9.090185             6.659182            0             0.031932    [1[6[8][1][1]]]                                             
  H           6.342889             8.682943             8.259780            0             0.031932    [1[6[8][1][1]]]                                             
  H           7.982865             8.432314             7.760599            0             0.031932    [1[6[8][1][1]]]                                             
  C           9.582655             6.879623             4.936623            1             0.099454    [6[8[1]][1][1][1]]                                          
  O           10.255227            6.090616             5.863854            1            -0.597823    [8[6[1][1][1]][1]]                                          
  H           10.330314            6.486114             6.755497            1             0.402573    [1[8[6]]]                                                   
  H           10.083130            7.853261             4.736883            1             0.031932    [1[6[8][1][1]]]                                             
  H           9.466581             6.489050             3.892743            1             0.031932    [1[6[8][1][1]]]                                             
  H           8.555110             7.126426             5.235489            1             0.031932    [1[6[8][1][1]]]                                             
