12

  C          -4.769766            -3.580536             9.570225            0             0.099454    [6[8[1]][1][1][1]]                                          
  O          -4.512011            -2.670247             8.537336            0            -0.597823    [8[6[1][1][1]][1]]                                          
  H          -4.507633            -1.874928             9.074293            0             0.402573    [1[8[6]]]                                                   
  H          -4.004359            -3.378747             10.345685           0             0.031932    [1[6[8][1][1]]]                                             
  H          -5.746053            -3.566870             10.002338           0             0.031932    [1[6[8][1][1]]]                                             
  H          -4.559165            -4.618552             9.236661            0             0.031932    [1[6[8][1][1]]]                                             
  C          -3.954571             1.031341             8.637130            1             0.099454    [6[8[1]][1][1][1]]                                          
  O          -4.137439             0.344874             9.855359            1            -0.597823    [8[6[1][1][1]][1]]                                          
  H          -3.949759             0.977031             10.528426           1             0.402573    [1[8[6]]]                                                   
  H          -2.901997             1.319992             8.390661            1             0.031932    [1[6[8][1][1]]]                                             
  H          -4.152900             0.485042             7.742376            1             0.031932    [1[6[8][1][1]]]                                             
  H          -4.483520             2.000023             8.705440            1             0.031932    [1[6[8][1][1]]]                                             
