12

  C           6.456207            -9.635121            -3.002352            0             0.099454    [6[8[1]][1][1][1]]                                          
  O           5.313552            -8.929165            -2.542253            0            -0.597823    [8[6[1][1][1]][1]]                                          
  H           4.539224            -9.296089            -2.995425            0             0.402573    [1[8[6]]]                                                   
  H           6.621316            -9.549502            -4.115482            0             0.031932    [1[6[8][1][1]]]                                             
  H           7.368162            -9.420814            -2.398574            0             0.031932    [1[6[8][1][1]]]                                             
  H           6.249894            -10.692458           -2.982951            0             0.031932    [1[6[8][1][1]]]                                             
  C           5.627587            -5.136580            -1.247418            1             0.099454    [6[8[1]][1][1][1]]                                          
  O           6.519670            -6.103623            -1.501182            1            -0.597823    [8[6[1][1][1]][1]]                                          
  H           6.057094            -6.978844            -1.618841            1             0.402573    [1[8[6]]]                                                   
  H           5.181491            -4.714285            -2.195256            1             0.031932    [1[6[8][1][1]]]                                             
  H           4.847782            -5.517657            -0.580158            1             0.031932    [1[6[8][1][1]]]                                             
  H           6.143805            -4.348762            -0.702577            1             0.031932    [1[6[8][1][1]]]                                             
