12

  C           3.778419            -6.836867             5.976768            0             0.099454    [6[8[1]][1][1][1]]                                          
  O           3.260152            -7.910621             6.743378            0            -0.597823    [8[6[1][1][1]][1]]                                          
  H           2.329258            -7.973401             6.412275            0             0.402573    [1[8[6]]]                                                   
  H           4.083998            -7.327440             5.026746            0             0.031932    [1[6[8][1][1]]]                                             
  H           3.114401            -6.098995             5.565235            0             0.031932    [1[6[8][1][1]]]                                             
  H           4.744098            -6.458797             6.368110            0             0.031932    [1[6[8][1][1]]]                                             
  C          -0.144222            -6.388239             7.109689            1             0.099454    [6[8[1]][1][1][1]]                                          
  O           0.615973            -6.573767             5.942439            1            -0.597823    [8[6[1][1][1]][1]]                                          
  H           0.207923            -7.303028             5.449768            1             0.402573    [1[8[6]]]                                                   
  H           0.185809            -5.543396             7.793913            1             0.031932    [1[6[8][1][1]]]                                             
  H          -1.164782            -6.128827             6.762129            1             0.031932    [1[6[8][1][1]]]                                             
  H          -0.143347            -7.286734             7.691108            1             0.031932    [1[6[8][1][1]]]                                             
