12

  C          -5.489523            -3.813304             8.215315            0             0.099454    [6[8[1]][1][1][1]]                                          
  O          -6.739284            -4.407885             8.109298            0            -0.597823    [8[6[1][1][1]][1]]                                          
  H          -7.413917            -3.714608             8.024810            0             0.402573    [1[8[6]]]                                                   
  H          -4.976029            -3.686453             7.194270            0             0.031932    [1[6[8][1][1]]]                                             
  H          -5.521442            -2.886207             8.754006            0             0.031932    [1[6[8][1][1]]]                                             
  H          -4.844538            -4.540704             8.737894            0             0.031932    [1[6[8][1][1]]]                                             
  C          -8.750132            -3.209529             5.758697            1             0.099454    [6[8[1]][1][1][1]]                                          
  O          -8.636252            -2.800862             7.090331            1            -0.597823    [8[6[1][1][1]][1]]                                          
  H          -8.941399            -1.901998             7.252660            1             0.402573    [1[8[6]]]                                                   
  H          -8.567142            -2.361493             5.074690            1             0.031932    [1[6[8][1][1]]]                                             
  H          -7.992713            -4.009149             5.610206            1             0.031932    [1[6[8][1][1]]]                                             
  H          -9.785928            -3.549334             5.647904            1             0.031932    [1[6[8][1][1]]]                                             
