12

  C           3.223272            -2.438549            -3.423664            0             0.099454    [6[8[1]][1][1][1]]                                          
  O           3.022313            -1.536234            -2.328984            0            -0.597823    [8[6[1][1][1]][1]]                                          
  H           3.613779            -1.773464            -1.680100            0             0.402573    [1[8[6]]]                                                   
  H           4.288692            -2.640440            -3.533088            0             0.031932    [1[6[8][1][1]]]                                             
  H           2.703304            -3.430729            -3.213615            0             0.031932    [1[6[8][1][1]]]                                             
  H           2.902876            -2.032643            -4.407125            0             0.031932    [1[6[8][1][1]]]                                             
  C           4.357055            -0.921012             0.508239            1             0.099454    [6[8[1]][1][1][1]]                                          
  O           4.768038            -2.020735            -0.250055            1            -0.597823    [8[6[1][1][1]][1]]                                          
  H           5.388173            -2.572599             0.225571            1             0.402573    [1[8[6]]]                                                   
  H           3.704529            -1.196182             1.324755            1             0.031932    [1[6[8][1][1]]]                                             
  H           5.206016            -0.304580             0.819030            1             0.031932    [1[6[8][1][1]]]                                             
  H           3.826832            -0.204135            -0.156533            1             0.031932    [1[6[8][1][1]]]                                             
