6
Indices: 0 1 2 3 4 5
C             3.01160157949035    -1.18088591571213     0.59855042260643    [6[8[1]][1][1][1]]
O             4.39437888791386    -1.12806124626813     0.87424888928338    [8[6[1][1][1]][1]]
H             4.77190199897804    -0.37903310748947     0.41243448690438    [1[8[6]]]
H             2.80672828144027    -1.31895364192112    -0.46929104916363    [1[6[8][1][1]]]
H             2.61192605996537    -2.04025374346701     1.13595698496549    [1[6[8][1][1]]]
H             2.48505119813002    -0.28447988222057     0.94571750216288    [1[6[8][1][1]]]
