12

  C           3.339832             1.269287             2.736079            0             0.099454    [6[8[1]][1][1][1]]                                          
  O           4.575399             1.102023             2.148196            0            -0.597823    [8[6[1][1][1]][1]]                                          
  H           4.625842             1.343581             1.242459            0             0.402573    [1[8[6]]]                                                   
  H           2.622136             0.497492             2.359557            0             0.031932    [1[6[8][1][1]]]                                             
  H           3.320272             1.094356             3.836294            0             0.031932    [1[6[8][1][1]]]                                             
  H           2.955265             2.273138             2.563413            0             0.031932    [1[6[8][1][1]]]                                             
  C           5.320291            -2.197871             3.138490            1             0.099454    [6[8[1]][1][1][1]]                                          
  O           6.016178            -1.444388             2.229891            1            -0.597823    [8[6[1][1][1]][1]]                                          
  H           5.855802            -0.529282             2.452323            1             0.402573    [1[8[6]]]                                                   
  H           5.084570            -3.182776             2.646354            1             0.031932    [1[6[8][1][1]]]                                             
  H           5.926100            -2.518909             4.004506            1             0.031932    [1[6[8][1][1]]]                                             
  H           4.393442            -1.702306             3.476821            1             0.031932    [1[6[8][1][1]]]                                             
