12

  C          -2.431959            -3.800440            -10.436812           0             0.099454    [6[8[1]][1][1][1]]                                          
  O          -3.069579            -2.759655            -9.855939            0            -0.597823    [8[6[1][1][1]][1]]                                          
  H          -3.468197            -2.235065            -10.555504           0             0.402573    [1[8[6]]]                                                   
  H          -1.959090            -4.364223            -9.560604            0             0.031932    [1[6[8][1][1]]]                                             
  H          -3.197361            -4.457196            -10.887055           0             0.031932    [1[6[8][1][1]]]                                             
  H          -1.568748            -3.513289            -11.072070           0             0.031932    [1[6[8][1][1]]]                                             
  C          -0.073123            -1.446190            -8.216808            1             0.099454    [6[8[1]][1][1][1]]                                          
  O          -1.511276            -1.386033            -7.972228            1            -0.597823    [8[6[1][1][1]][1]]                                          
  H          -1.960776            -1.925502            -8.635251            1             0.402573    [1[8[6]]]                                                   
  H           0.244114            -2.511909            -8.329340            1             0.031932    [1[6[8][1][1]]]                                             
  H           0.238899            -0.965654            -9.158565            1             0.031932    [1[6[8][1][1]]]                                             
  H           0.527147            -0.841932            -7.501318            1             0.031932    [1[6[8][1][1]]]                                             
