12

  C           0.999467            -9.027304            -3.912011            0             0.099454    [6[8[1]][1][1][1]]                                          
  O           2.186414            -9.130388            -3.186209            0            -0.597823    [8[6[1][1][1]][1]]                                          
  H           2.083546            -9.885682            -2.567494            0             0.402573    [1[8[6]]]                                                   
  H           0.950091            -9.809537            -4.582821            0             0.031932    [1[6[8][1][1]]]                                             
  H           0.089306            -9.087572            -3.267712            0             0.031932    [1[6[8][1][1]]]                                             
  H           0.963477            -8.154280            -4.573107            0             0.031932    [1[6[8][1][1]]]                                             
  C           1.119483            -6.538144            -0.680068            1             0.099454    [6[8[1]][1][1][1]]                                          
  O           0.417428            -7.307162            -1.618554            1            -0.597823    [8[6[1][1][1]][1]]                                          
  H           0.481454            -6.720103            -2.408740            1             0.402573    [1[8[6]]]                                                   
  H           2.192324            -6.606482            -0.857920            1             0.031932    [1[6[8][1][1]]]                                             
  H           0.863229            -5.464750            -0.748779            1             0.031932    [1[6[8][1][1]]]                                             
  H           0.923597            -6.843216             0.363821            1             0.031932    [1[6[8][1][1]]]                                             
