12

  C           1.357016            -4.144993            -10.981236           0             0.099454    [6[8[1]][1][1][1]]                                          
  O           0.027472            -4.230226            -11.449429           0            -0.597823    [8[6[1][1][1]][1]]                                          
  H          -0.609732            -4.116617            -10.744449           0             0.402573    [1[8[6]]]                                                   
  H           1.503885            -3.179850            -10.444601           0             0.031932    [1[6[8][1][1]]]                                             
  H           1.556631            -4.875398            -10.229939           0             0.031932    [1[6[8][1][1]]]                                             
  H           2.132881            -4.103547            -11.830028           0             0.031932    [1[6[8][1][1]]]                                             
  C           4.032736            -6.967960            -6.716628            1             0.099454    [6[8[1]][1][1][1]]                                          
  O           3.995714            -7.928267            -7.704090            1            -0.597823    [8[6[1][1][1]][1]]                                          
  H           4.878147            -8.046026            -8.041079            1             0.402573    [1[8[6]]]                                                   
  H           4.645797            -6.216006            -7.105603            1             0.031932    [1[6[8][1][1]]]                                             
  H           3.024151            -6.574050            -6.466986            1             0.031932    [1[6[8][1][1]]]                                             
  H           4.565890            -7.324431            -5.808960            1             0.031932    [1[6[8][1][1]]]                                             
