12

  C          -4.858137             8.794378            -2.162719            0             0.099454    [6[8[1]][1][1][1]]                                          
  O          -5.057893             9.023676            -0.762485            0            -0.597823    [8[6[1][1][1]][1]]                                          
  H          -4.277961             8.800261            -0.211867            0             0.402573    [1[8[6]]]                                                   
  H          -5.459045             7.976104            -2.597022            0             0.031932    [1[6[8][1][1]]]                                             
  H          -5.076426             9.725379            -2.688449            0             0.031932    [1[6[8][1][1]]]                                             
  H          -3.806476             8.543483            -2.442663            0             0.031932    [1[6[8][1][1]]]                                             
  C          -7.738484             10.361660           -5.552580            1             0.099454    [6[8[1]][1][1][1]]                                          
  O          -6.863904             9.779337            -4.522184            1            -0.597823    [8[6[1][1][1]][1]]                                          
  H          -7.368457             9.147472            -3.992070            1             0.402573    [1[8[6]]]                                                   
  H          -7.403363             11.428585           -5.831735            1             0.031932    [1[6[8][1][1]]]                                             
  H          -7.648731             9.861242            -6.512678            1             0.031932    [1[6[8][1][1]]]                                             
  H          -8.867734             10.356978           -5.293214            1             0.031932    [1[6[8][1][1]]]                                             
