12

  C          -5.907909            -7.270383            -9.411896            0             0.099454    [6[8[1]][1][1][1]]                                          
  O          -6.939199            -7.776413            -10.164808           0            -0.597823    [8[6[1][1][1]][1]]                                          
  H          -6.849810            -8.745502            -10.180810           0             0.402573    [1[8[6]]]                                                   
  H          -5.949273            -7.445977            -8.375448            0             0.031932    [1[6[8][1][1]]]                                             
  H          -4.982129            -7.743169            -9.713157            0             0.031932    [1[6[8][1][1]]]                                             
  H          -5.813734            -6.172566            -9.550983            0             0.031932    [1[6[8][1][1]]]                                             
  C          -9.917695            -6.771640            -11.480742           1             0.099454    [6[8[1]][1][1][1]]                                          
  O          -10.379273           -7.468041            -10.321750           1            -0.597823    [8[6[1][1][1]][1]]                                          
  H          -10.399778           -6.797954            -9.638099            1             0.402573    [1[8[6]]]                                                   
  H          -9.683152            -7.503796            -12.254542           1             0.031932    [1[6[8][1][1]]]                                             
  H          -10.721337           -6.171460            -11.894603           1             0.031932    [1[6[8][1][1]]]                                             
  H          -9.119196            -6.020222            -11.364647           1             0.031932    [1[6[8][1][1]]]                                             
