12

  C           7.029929            -10.246656            2.441205            0             0.099454    [6[8[1]][1][1][1]]                                          
  O           6.272776            -10.696753            3.566318            0            -0.597823    [8[6[1][1][1]][1]]                                          
  H           5.828643            -9.955167             4.014150            0             0.402573    [1[8[6]]]                                                   
  H           7.734906            -11.057839            2.095183            0             0.031932    [1[6[8][1][1]]]                                             
  H           6.360596            -10.006411            1.596224            0             0.031932    [1[6[8][1][1]]]                                             
  H           7.665021            -9.402436             2.631238            0             0.031932    [1[6[8][1][1]]]                                             
  C           8.426351            -10.756840            6.563914            1             0.099454    [6[8[1]][1][1][1]]                                          
  O           8.892967            -10.194603            5.260288            1            -0.597823    [8[6[1][1][1]][1]]                                          
  H           8.448677            -10.595770            4.508747            1             0.402573    [1[8[6]]]                                                   
  H           8.711188            -10.114172            7.408392            1             0.031932    [1[6[8][1][1]]]                                             
  H           7.384836            -10.693678            6.594963            1             0.031932    [1[6[8][1][1]]]                                             
  H           8.700015            -11.803802            6.671900            1             0.031932    [1[6[8][1][1]]]                                             
