12

  C          -8.719428            -0.806688             2.256153            0             0.099454    [6[8[1]][1][1][1]]                                          
  O          -10.041191           -1.234781             2.494380            0            -0.597823    [8[6[1][1][1]][1]]                                          
  H          -10.144787           -1.521010             3.361301            0             0.402573    [1[8[6]]]                                                   
  H          -8.220031            -0.383521             3.209562            0             0.031932    [1[6[8][1][1]]]                                             
  H          -8.128405            -1.587988             1.732554            0             0.031932    [1[6[8][1][1]]]                                             
  H          -8.726105             0.059084             1.528395            0             0.031932    [1[6[8][1][1]]]                                             
  C          -5.627778            -3.957055             4.148896            1             0.099454    [6[8[1]][1][1][1]]                                          
  O          -6.325654            -5.194564             4.234933            1            -0.597823    [8[6[1][1][1]][1]]                                          
  H          -5.814133            -5.921400             3.824445            1             0.402573    [1[8[6]]]                                                   
  H          -6.307646            -3.150269             3.922174            1             0.031932    [1[6[8][1][1]]]                                             
  H          -5.121940            -3.690074             5.074566            1             0.031932    [1[6[8][1][1]]]                                             
  H          -4.861529            -3.989166             3.367635            1             0.031932    [1[6[8][1][1]]]                                             
