12

  C          -4.592135            -8.778354            -4.672863            0             0.099454    [6[8[1]][1][1][1]]                                          
  O          -4.996036            -7.685713            -3.782804            0            -0.597823    [8[6[1][1][1]][1]]                                          
  H          -4.696775            -7.821721            -2.928204            0             0.402573    [1[8[6]]]                                                   
  H          -3.534098            -9.010149            -4.638917            0             0.031932    [1[6[8][1][1]]]                                             
  H          -5.112055            -9.688766            -4.343416            0             0.031932    [1[6[8][1][1]]]                                             
  H          -4.938609            -8.647915            -5.698391            0             0.031932    [1[6[8][1][1]]]                                             
  C          -8.445493            -8.970130            -4.854206            1             0.099454    [6[8[1]][1][1][1]]                                          
  O          -8.017802            -7.780102            -4.192858            1            -0.597823    [8[6[1][1][1]][1]]                                          
  H          -7.371794            -8.082310            -3.518202            1             0.402573    [1[8[6]]]                                                   
  H          -7.667037            -9.755791            -4.931403            1             0.031932    [1[6[8][1][1]]]                                             
  H          -9.267876            -9.327560            -4.164710            1             0.031932    [1[6[8][1][1]]]                                             
  H          -8.935685            -8.943218            -5.800736            1             0.031932    [1[6[8][1][1]]]                                             
