12

  C           3.051319             10.744531           -1.095731            0             0.099454    [6[8[1]][1][1][1]]                                          
  O           4.041918             9.795528            -1.066697            0            -0.597823    [8[6[1][1][1]][1]]                                          
  H           3.695005             9.045905            -1.508227            0             0.402573    [1[8[6]]]                                                   
  H           2.823380             11.193484           -2.079917            0             0.031932    [1[6[8][1][1]]]                                             
  H           2.116573             10.257582           -0.937231            0             0.031932    [1[6[8][1][1]]]                                             
  H           3.298022             11.551580           -0.358631            0             0.031932    [1[6[8][1][1]]]                                             
  C           1.018940             6.694985            -1.032136            1             0.099454    [6[8[1]][1][1][1]]                                          
  O           2.230174             6.372593            -0.305373            1            -0.597823    [8[6[1][1][1]][1]]                                          
  H           2.404146             5.410996            -0.444812            1             0.402573    [1[8[6]]]                                                   
  H           0.998442             7.759421            -1.303204            1             0.031932    [1[6[8][1][1]]]                                             
  H           1.070386             6.146931            -2.024044            1             0.031932    [1[6[8][1][1]]]                                             
  H           0.123242             6.356830            -0.452372            1             0.031932    [1[6[8][1][1]]]                                             
