12

  C           4.682052            -4.285258             7.565120            0             0.099454    [6[8[1]][1][1][1]]                                          
  O           4.866444            -3.775011             6.253769            0            -0.597823    [8[6[1][1][1]][1]]                                          
  H           4.430609            -2.921144             6.243393            0             0.402573    [1[8[6]]]                                                   
  H           4.396078            -3.482571             8.277853            0             0.031932    [1[6[8][1][1]]]                                             
  H           3.896837            -5.017560             7.602140            0             0.031932    [1[6[8][1][1]]]                                             
  H           5.548066            -4.676643             7.981622            0             0.031932    [1[6[8][1][1]]]                                             
  C           4.067300            -0.064040             6.166807            1             0.099454    [6[8[1]][1][1][1]]                                          
  O           3.400789            -1.333561             6.188324            1            -0.597823    [8[6[1][1][1]][1]]                                          
  H           2.585343            -1.204420             6.657145            1             0.402573    [1[8[6]]]                                                   
  H           5.048777            -0.105712             5.721656            1             0.031932    [1[6[8][1][1]]]                                             
  H           3.512115             0.726795             5.619229            1             0.031932    [1[6[8][1][1]]]                                             
  H           4.141362             0.411491             7.155482            1             0.031932    [1[6[8][1][1]]]                                             
