12

  C           3.051319             10.744531           -1.095731            0             0.099454    [6[8[1]][1][1][1]]                                          
  O           4.041918             9.795528            -1.066697            0            -0.597823    [8[6[1][1][1]][1]]                                          
  H           3.695005             9.045905            -1.508227            0             0.402573    [1[8[6]]]                                                   
  H           2.823380             11.193484           -2.079917            0             0.031932    [1[6[8][1][1]]]                                             
  H           2.116573             10.257582           -0.937231            0             0.031932    [1[6[8][1][1]]]                                             
  H           3.298022             11.551580           -0.358631            0             0.031932    [1[6[8][1][1]]]                                             
  C           0.210144             10.473022           -4.524549            1             0.099454    [6[8[1]][1][1][1]]                                          
  O           1.100246             10.037695           -3.547117            1            -0.597823    [8[6[1][1][1]][1]]                                          
  H           1.188469             9.121829            -3.507936            1             0.402573    [1[8[6]]]                                                   
  H           0.109918             11.593672           -4.581112            1             0.031932    [1[6[8][1][1]]]                                             
  H           0.513361             10.239844           -5.452492            1             0.031932    [1[6[8][1][1]]]                                             
  H          -0.729138             9.860360            -4.402327            1             0.031932    [1[6[8][1][1]]]                                             
