12

  C          -8.780170            -0.005210             1.369627            0             0.099454    [6[8[1]][1][1][1]]                                          
  O          -9.186210            -0.753698             0.255465            0            -0.597823    [8[6[1][1][1]][1]]                                          
  H          -9.206052            -0.176593            -0.485344            0             0.402573    [1[8[6]]]                                                   
  H          -8.738875            -0.594958             2.254394            0             0.031932    [1[6[8][1][1]]]                                             
  H          -7.789838             0.382653             1.322677            0             0.031932    [1[6[8][1][1]]]                                             
  H          -9.441649             0.884311             1.442646            0             0.031932    [1[6[8][1][1]]]                                             
  C          -9.616730            -3.824577             2.018794            1             0.099454    [6[8[1]][1][1][1]]                                          
  O          -9.593404            -3.533576             0.662581            1            -0.597823    [8[6[1][1][1]][1]]                                          
  H          -9.150016            -2.744085             0.427374            1             0.402573    [1[8[6]]]                                                   
  H          -8.576193            -3.770551             2.414220            1             0.031932    [1[6[8][1][1]]]                                             
  H          -10.273800           -3.144696             2.599141            1             0.031932    [1[6[8][1][1]]]                                             
  H          -10.047138           -4.831438             2.146995            1             0.031932    [1[6[8][1][1]]]                                             
