12

  C           0.666390            -0.715815            -0.420100            0             0.099454    [6[8[1]][1][1][1]]                                          
  O           1.567490             0.321839            -0.143165            0            -0.597823    [8[6[1][1][1]][1]]                                          
  H           1.326093             1.086254            -0.696441            0             0.402573    [1[8[6]]]                                                   
  H          -0.316124            -0.427597            -0.014911            0             0.031932    [1[6[8][1][1]]]                                             
  H           0.543968            -0.926248            -1.464179            0             0.031932    [1[6[8][1][1]]]                                             
  H           1.024687            -1.624058             0.019191            0             0.031932    [1[6[8][1][1]]]                                             
  C           0.951974             2.416142             4.191653            1             0.099454    [6[8[1]][1][1][1]]                                          
  O           1.141761             2.891847             5.490232            1            -0.597823    [8[6[1][1][1]][1]]                                          
  H           1.060901             2.174047             6.127462            1             0.402573    [1[8[6]]]                                                   
  H           1.329369             3.066310             3.438177            1             0.031932    [1[6[8][1][1]]]                                             
  H           1.284872             1.400295             3.955974            1             0.031932    [1[6[8][1][1]]]                                             
  H          -0.073623             2.426151             3.974505            1             0.031932    [1[6[8][1][1]]]                                             
