12

  C           7.027536             3.700445             1.588677            0             0.099454    [6[8[1]][1][1][1]]                                          
  O           7.121738             4.093266             0.247516            0            -0.597823    [8[6[1][1][1]][1]]                                          
  H           7.366341             3.333908            -0.299382            0             0.402573    [1[8[6]]]                                                   
  H           8.023769             3.471064             2.076743            0             0.031932    [1[6[8][1][1]]]                                             
  H           6.544191             4.464693             2.197487            0             0.031932    [1[6[8][1][1]]]                                             
  H           6.420623             2.848499             1.708700            0             0.031932    [1[6[8][1][1]]]                                             
  C           8.601425             6.920076             1.637831            1             0.099454    [6[8[1]][1][1][1]]                                          
  O           7.416930             6.742712             0.853105            1            -0.597823    [8[6[1][1][1]][1]]                                          
  H           7.440295             5.891707             0.379606            1             0.402573    [1[8[6]]]                                                   
  H           9.457461             6.865217             0.985946            1             0.031932    [1[6[8][1][1]]]                                             
  H           8.621270             7.835848             2.165665            1             0.031932    [1[6[8][1][1]]]                                             
  H           8.698329             6.067218             2.366144            1             0.031932    [1[6[8][1][1]]]                                             
