12

  C          -9.188982             2.734245            -3.089868            0             0.099454    [6[8[1]][1][1][1]]                                          
  O          -7.949023             2.911490            -3.748448            0            -0.597823    [8[6[1][1][1]][1]]                                          
  H          -7.436477             3.426553            -3.131312            0             0.402573    [1[8[6]]]                                                   
  H          -9.203550             1.752508            -2.653941            0             0.031932    [1[6[8][1][1]]]                                             
  H          -9.451400             3.492022            -2.322861            0             0.031932    [1[6[8][1][1]]]                                             
  H          -10.104893            2.853784            -3.707225            0             0.031932    [1[6[8][1][1]]]                                             
  C          -7.280844             6.258362            -1.869373            1             0.099454    [6[8[1]][1][1][1]]                                          
  O          -6.851826             4.897914            -1.855006            1            -0.597823    [8[6[1][1][1]][1]]                                          
  H          -6.765872             4.622303            -0.926568            1             0.402573    [1[8[6]]]                                                   
  H          -6.437297             6.972732            -1.824910            1             0.031932    [1[6[8][1][1]]]                                             
  H          -7.547841             6.518450            -2.920986            1             0.031932    [1[6[8][1][1]]]                                             
  H          -8.073158             6.482182            -1.205432            1             0.031932    [1[6[8][1][1]]]                                             
