12

  C           4.024355            -6.801977            -8.916837            0             0.099454    [6[8[1]][1][1][1]]                                          
  O           2.663368            -6.801153            -9.057764            0            -0.597823    [8[6[1][1][1]][1]]                                          
  H           2.302271            -5.971964            -8.723730            0             0.402573    [1[8[6]]]                                                   
  H           4.469199            -5.890253            -9.387422            0             0.031932    [1[6[8][1][1]]]                                             
  H           4.195968            -6.701892            -7.838637            0             0.031932    [1[6[8][1][1]]]                                             
  H           4.536072            -7.759296            -9.102608            0             0.031932    [1[6[8][1][1]]]                                             
  C           3.951642            -8.742579            -5.025396            1             0.099454    [6[8[1]][1][1][1]]                                          
  O           2.907428            -9.621250            -5.053495            1            -0.597823    [8[6[1][1][1]][1]]                                          
  H           3.116910            -10.352531           -4.440881            1             0.402573    [1[8[6]]]                                                   
  H           4.234448            -8.453185            -4.021377            1             0.031932    [1[6[8][1][1]]]                                             
  H           4.835295            -9.253725            -5.545535            1             0.031932    [1[6[8][1][1]]]                                             
  H           3.758733            -7.841400            -5.541155            1             0.031932    [1[6[8][1][1]]]                                             
