12

  C          -2.110928             11.390825            7.574175            0             0.099454    [6[8[1]][1][1][1]]                                          
  O          -1.303257             10.316187            7.707575            0            -0.597823    [8[6[1][1][1]][1]]                                          
  H          -1.872668             9.562282             7.848446            0             0.402573    [1[8[6]]]                                                   
  H          -1.498166             12.268386            7.471384            0             0.031932    [1[6[8][1][1]]]                                             
  H          -2.755923             11.272451            6.697372            0             0.031932    [1[6[8][1][1]]]                                             
  H          -2.764465             11.399083            8.410064            0             0.031932    [1[6[8][1][1]]]                                             
  C          -4.147170             7.823411             6.874374            1             0.099454    [6[8[1]][1][1][1]]                                          
  O          -4.410788             9.215313             6.804372            1            -0.597823    [8[6[1][1][1]][1]]                                          
  H          -4.681902             9.463682             7.702422            1             0.402573    [1[8[6]]]                                                   
  H          -5.066764             7.234937             7.221026            1             0.031932    [1[6[8][1][1]]]                                             
  H          -4.034257             7.479906             5.912013            1             0.031932    [1[6[8][1][1]]]                                             
  H          -3.313547             7.589338             7.539297            1             0.031932    [1[6[8][1][1]]]                                             
