12

  C          -1.585404             3.392058             7.212129            0             0.099454    [6[8[1]][1][1][1]]                                          
  O          -2.120105             3.744945             8.520689            0            -0.597823    [8[6[1][1][1]][1]]                                          
  H          -1.462705             3.477092             9.167592            0             0.402573    [1[8[6]]]                                                   
  H          -2.311762             3.531126             6.455074            0             0.031932    [1[6[8][1][1]]]                                             
  H          -0.759444             4.075805             6.822156            0             0.031932    [1[6[8][1][1]]]                                             
  H          -1.228848             2.336794             7.215379            0             0.031932    [1[6[8][1][1]]]                                             
  C           1.536890             6.629011             5.519386            1             0.099454    [6[8[1]][1][1][1]]                                          
  O           0.725455             7.687187             5.987546            1            -0.597823    [8[6[1][1][1]][1]]                                          
  H           0.091693             7.294986             6.653605            1             0.402573    [1[8[6]]]                                                   
  H           1.917909             6.062887             6.367477            1             0.031932    [1[6[8][1][1]]]                                             
  H           0.971347             5.888742             4.873822            1             0.031932    [1[6[8][1][1]]]                                             
  H           2.438145             6.869504             4.946360            1             0.031932    [1[6[8][1][1]]]                                             
