12

  C           2.644582            -4.496149             4.921701            0             0.099454    [6[8[1]][1][1][1]]                                          
  O           1.571882            -5.465876             5.016327            0            -0.597823    [8[6[1][1][1]][1]]                                          
  H           0.734321            -5.043278             5.354497            0             0.402573    [1[8[6]]]                                                   
  H           3.257729            -4.554362             5.857195            0             0.031932    [1[6[8][1][1]]]                                             
  H           3.420873            -4.747145             4.172869            0             0.031932    [1[6[8][1][1]]]                                             
  H           2.283139            -3.498105             4.678804            0             0.031932    [1[6[8][1][1]]]                                             
  C          -1.797046            -4.013629             6.412944            1             0.099454    [6[8[1]][1][1][1]]                                          
  O          -0.795036            -4.973618             6.750432            1            -0.597823    [8[6[1][1][1]][1]]                                          
  H          -0.643296            -5.071644             7.705553            1             0.402573    [1[8[6]]]                                                   
  H          -1.606571            -3.033322             6.892368            1             0.031932    [1[6[8][1][1]]]                                             
  H          -1.940865            -3.918832             5.324172            1             0.031932    [1[6[8][1][1]]]                                             
  H          -2.766463            -4.355614             6.819624            1             0.031932    [1[6[8][1][1]]]                                             
