12

  C           2.238468            -1.442492            -1.376394            0             0.099454    [6[8[1]][1][1][1]]                                          
  O           1.121689            -1.733540            -0.514272            0            -0.597823    [8[6[1][1][1]][1]]                                          
  H           1.431541            -2.499082            -0.058163            0             0.402573    [1[8[6]]]                                                   
  H           3.190386            -1.760322            -0.835746            0             0.031932    [1[6[8][1][1]]]                                             
  H           2.025457            -1.974779            -2.354060            0             0.031932    [1[6[8][1][1]]]                                             
  H           2.293692            -0.377440            -1.575006            0             0.031932    [1[6[8][1][1]]]                                             
  C          -0.695942            -1.118168            -4.644641            1             0.099454    [6[8[1]][1][1][1]]                                          
  O          -0.689851             0.124149            -5.212528            1            -0.597823    [8[6[1][1][1]][1]]                                          
  H          -0.049258             0.673570            -4.677234            1             0.402573    [1[8[6]]]                                                   
  H          -0.102550            -1.842898            -5.168804            1             0.031932    [1[6[8][1][1]]]                                             
  H          -0.440777            -1.019185            -3.624721            1             0.031932    [1[6[8][1][1]]]                                             
  H          -1.700991            -1.589887            -4.669325            1             0.031932    [1[6[8][1][1]]]                                             
