12

  C          -5.694663             5.855385             7.654485            0             0.099454    [6[8[1]][1][1][1]]                                          
  O          -6.732413             4.908999             7.753493            0            -0.597823    [8[6[1][1][1]][1]]                                          
  H          -6.902734             4.785585             8.716413            0             0.402573    [1[8[6]]]                                                   
  H          -5.860336             6.901046             8.030014            0             0.031932    [1[6[8][1][1]]]                                             
  H          -4.748003             5.517548             8.206239            0             0.031932    [1[6[8][1][1]]]                                             
  H          -5.409941             5.988484             6.609934            0             0.031932    [1[6[8][1][1]]]                                             
  C          -9.181369             2.122025             5.814508            1             0.099454    [6[8[1]][1][1][1]]                                          
  O          -8.904246             2.536516             7.146417            1            -0.597823    [8[6[1][1][1]][1]]                                          
  H          -8.288244             3.301824             7.207093            1             0.402573    [1[8[6]]]                                                   
  H          -8.213815             2.199684             5.235665            1             0.031932    [1[6[8][1][1]]]                                             
  H          -9.506973             1.100846             5.833280            1             0.031932    [1[6[8][1][1]]]                                             
  H          -9.931350             2.722090             5.355694            1             0.031932    [1[6[8][1][1]]]                                             
