12

  C           3.346385             5.166609            -0.324777            0             0.099454    [6[8[1]][1][1][1]]                                          
  O           4.605433             4.856927            -0.851271            0            -0.597823    [8[6[1][1][1]][1]]                                          
  H           4.735588             5.658297            -1.389277            0             0.402573    [1[8[6]]]                                                   
  H           2.939554             4.225934            -0.016089            0             0.031932    [1[6[8][1][1]]]                                             
  H           3.411675             5.727115             0.579502            0             0.031932    [1[6[8][1][1]]]                                             
  H           2.613158             5.716876            -1.000328            0             0.031932    [1[6[8][1][1]]]                                             
  C           1.095944             8.166273             0.776603            1             0.099454    [6[8[1]][1][1][1]]                                          
  O           0.517582             8.047650            -0.461068            1            -0.597823    [8[6[1][1][1]][1]]                                          
  H           0.706959             8.852177            -0.975110            1             0.402573    [1[8[6]]]                                                   
  H           0.550971             9.003790             1.328476            1             0.031932    [1[6[8][1][1]]]                                             
  H           1.245504             7.247085             1.380575            1             0.031932    [1[6[8][1][1]]]                                             
  H           2.087410             8.582038             0.714807            1             0.031932    [1[6[8][1][1]]]                                             
