12

  C           4.420336            -3.631376             1.742753            0             0.099454    [6[8[1]][1][1][1]]                                          
  O           3.162538            -4.207617             1.389367            0            -0.597823    [8[6[1][1][1]][1]]                                          
  H           2.908502            -4.657569             2.203867            0             0.402573    [1[8[6]]]                                                   
  H           4.810058            -2.966194             0.971924            0             0.031932    [1[6[8][1][1]]]                                             
  H           4.419981            -3.156620             2.638260            0             0.031932    [1[6[8][1][1]]]                                             
  H           5.257324            -4.385752             1.882703            0             0.031932    [1[6[8][1][1]]]                                             
  C           4.782454            -7.749446             2.341077            1             0.099454    [6[8[1]][1][1][1]]                                          
  O           4.729057            -7.195487             3.633504            1            -0.597823    [8[6[1][1][1]][1]]                                          
  H           5.558203            -7.561001             3.976243            1             0.402573    [1[8[6]]]                                                   
  H           4.043059            -7.129505             1.759039            1             0.031932    [1[6[8][1][1]]]                                             
  H           5.773346            -7.555535             1.845416            1             0.031932    [1[6[8][1][1]]]                                             
  H           4.616473            -8.806187             2.357449            1             0.031932    [1[6[8][1][1]]]                                             
