12

  C          -3.031453            -8.230321             9.453541            0             0.099454    [6[8[1]][1][1][1]]                                          
  O          -2.800068            -6.911817             8.896784            0            -0.597823    [8[6[1][1][1]][1]]                                          
  H          -2.274891            -6.502026             9.650505            0             0.402573    [1[8[6]]]                                                   
  H          -3.671579            -8.226209             10.428590           0             0.031932    [1[6[8][1][1]]]                                             
  H          -3.573674            -8.815508             8.708564            0             0.031932    [1[6[8][1][1]]]                                             
  H          -2.044238            -8.683523             9.744940            0             0.031932    [1[6[8][1][1]]]                                             
  C          -4.521975            -6.233287             5.954755            1             0.099454    [6[8[1]][1][1][1]]                                          
  O          -4.879138            -6.814400             7.255290            1            -0.597823    [8[6[1][1][1]][1]]                                          
  H          -4.346958            -6.453633             7.886201            1             0.402573    [1[8[6]]]                                                   
  H          -3.499010            -6.592115             5.620698            1             0.031932    [1[6[8][1][1]]]                                             
  H          -5.202318            -6.713222             5.198677            1             0.031932    [1[6[8][1][1]]]                                             
  H          -4.591454            -5.146394             5.966266            1             0.031932    [1[6[8][1][1]]]                                             
