12

  C          -2.565252             4.718114            -0.085181            0             0.099454    [6[8[1]][1][1][1]]                                          
  O          -2.001019             4.805665            -1.430314            0            -0.597823    [8[6[1][1][1]][1]]                                          
  H          -1.240345             5.338943            -1.221299            0             0.402573    [1[8[6]]]                                                   
  H          -1.779562             4.387065             0.613376            0             0.031932    [1[6[8][1][1]]]                                             
  H          -2.893558             5.626545             0.347260            0             0.031932    [1[6[8][1][1]]]                                             
  H          -3.394099             4.098800             0.009473            0             0.031932    [1[6[8][1][1]]]                                             
  C          -3.084867             2.515254             3.133100            1             0.099454    [6[8[1]][1][1][1]]                                          
  O          -3.232284             3.661662             3.928242            1            -0.597823    [8[6[1][1][1]][1]]                                          
  H          -3.629435             3.402159             4.772507            1             0.402573    [1[8[6]]]                                                   
  H          -4.054995             2.124697             2.781676            1             0.031932    [1[6[8][1][1]]]                                             
  H          -2.341373             2.640359             2.336730            1             0.031932    [1[6[8][1][1]]]                                             
  H          -2.766456             1.629814             3.716883            1             0.031932    [1[6[8][1][1]]]                                             
