12

  C           10.355604            7.318238            -2.186516            0             0.099454    [6[8[1]][1][1][1]]                                          
  O           9.596052             7.114368            -0.987642            0            -0.597823    [8[6[1][1][1]][1]]                                          
  H           8.891249             7.814339            -0.905441            0             0.402573    [1[8[6]]]                                                   
  H           11.135173            8.104721            -2.107995            0             0.031932    [1[6[8][1][1]]]                                             
  H           10.882896            6.364339            -2.387709            0             0.031932    [1[6[8][1][1]]]                                             
  H           9.837666             7.442704            -3.169920            0             0.031932    [1[6[8][1][1]]]                                             
  C           7.856281             6.990472             2.461391            1             0.099454    [6[8[1]][1][1][1]]                                          
  O           7.999837             7.573358             1.195961            1            -0.597823    [8[6[1][1][1]][1]]                                          
  H           8.965035             7.663970             0.982130            1             0.402573    [1[8[6]]]                                                   
  H           8.441369             7.390414             3.360844            1             0.031932    [1[6[8][1][1]]]                                             
  H           6.849756             6.852662             2.832672            1             0.031932    [1[6[8][1][1]]]                                             
  H           8.225145             5.967884             2.572257            1             0.031932    [1[6[8][1][1]]]                                             
