12

  C           3.461109             3.222378             4.105244            0             0.099454    [6[8[1]][1][1][1]]                                          
  O           3.157580             2.071432             3.453058            0            -0.597823    [8[6[1][1][1]][1]]                                          
  H           2.370845             1.638740             3.819682            0             0.402573    [1[8[6]]]                                                   
  H           3.982423             3.051816             5.032330            0             0.031932    [1[6[8][1][1]]]                                             
  H           4.203252             3.873688             3.594400            0             0.031932    [1[6[8][1][1]]]                                             
  H           2.649209             3.897304             4.300673            0             0.031932    [1[6[8][1][1]]]                                             
  C           3.420533             6.297204             5.717172            1             0.099454    [6[8[1]][1][1][1]]                                          
  O           2.552240             6.255611             4.552327            1            -0.597823    [8[6[1][1][1]][1]]                                          
  H           3.144058             6.201157             3.813255            1             0.402573    [1[8[6]]]                                                   
  H           4.220448             5.524893             5.714721            1             0.031932    [1[6[8][1][1]]]                                             
  H           4.002737             7.205981             5.743361            1             0.031932    [1[6[8][1][1]]]                                             
  H           2.827530             6.360837             6.689454            1             0.031932    [1[6[8][1][1]]]                                             
