12

  C           4.368537             5.393558            -2.809895            0             0.099454    [6[8[1]][1][1][1]]                                          
  O           3.561577             5.915263            -3.882099            0            -0.597823    [8[6[1][1][1]][1]]                                          
  H           2.747769             6.147654            -3.483270            0             0.402573    [1[8[6]]]                                                   
  H           4.522148             6.098134            -2.062670            0             0.031932    [1[6[8][1][1]]]                                             
  H           3.985404             4.497609            -2.348490            0             0.031932    [1[6[8][1][1]]]                                             
  H           5.365098             5.152908            -3.121065            0             0.031932    [1[6[8][1][1]]]                                             
  C           5.802662             8.664042            -3.684977            1             0.099454    [6[8[1]][1][1][1]]                                          
  O           6.585083             7.552426            -4.210731            1            -0.597823    [8[6[1][1][1]][1]]                                          
  H           5.950644             7.130417            -4.798706            1             0.402573    [1[8[6]]]                                                   
  H           6.455174             9.455196            -3.423040            1             0.031932    [1[6[8][1][1]]]                                             
  H           5.071348             9.050916            -4.434736            1             0.031932    [1[6[8][1][1]]]                                             
  H           5.290646             8.418091            -2.811630            1             0.031932    [1[6[8][1][1]]]                                             
