12

  C          -1.391945             3.297520            -7.878447            0             0.099454    [6[8[1]][1][1][1]]                                          
  O          -1.548555             4.014057            -9.007819            0            -0.597823    [8[6[1][1][1]][1]]                                          
  H          -2.491489             4.133702            -9.258821            0             0.402573    [1[8[6]]]                                                   
  H          -1.953114             3.750853            -7.007505            0             0.031932    [1[6[8][1][1]]]                                             
  H          -1.819787             2.295117            -8.033450            0             0.031932    [1[6[8][1][1]]]                                             
  H          -0.295701             3.124531            -7.632486            0             0.031932    [1[6[8][1][1]]]                                             
  C          -2.640541             0.829549            -10.356029           1             0.099454    [6[8[1]][1][1][1]]                                          
  O          -3.382298             1.832271            -10.972147           1            -0.597823    [8[6[1][1][1]][1]]                                          
  H          -2.802487             2.539130            -11.278118           1             0.402573    [1[8[6]]]                                                   
  H          -2.226809             0.121991            -11.096118           1             0.031932    [1[6[8][1][1]]]                                             
  H          -1.775766             1.282325            -9.850746            1             0.031932    [1[6[8][1][1]]]                                             
  H          -3.261187             0.205242            -9.647087            1             0.031932    [1[6[8][1][1]]]                                             
