12

  C           4.624367            -2.918903            -10.400656           0             0.099454    [6[8[1]][1][1][1]]                                          
  O           4.666448            -4.346803            -10.500811           0            -0.597823    [8[6[1][1][1]][1]]                                          
  H           5.472379            -4.610358            -10.966111           0             0.402573    [1[8[6]]]                                                   
  H           5.131493            -2.599970            -9.510842            0             0.031932    [1[6[8][1][1]]]                                             
  H           5.226740            -2.416390            -11.246797           0             0.031932    [1[6[8][1][1]]]                                             
  H           3.548281            -2.575049            -10.400635           0             0.031932    [1[6[8][1][1]]]                                             
  C           7.675457            -6.336189            -10.603416           1             0.099454    [6[8[1]][1][1][1]]                                          
  O           7.603533            -5.665192            -11.832627           1            -0.597823    [8[6[1][1][1]][1]]                                          
  H           7.495016            -6.340691            -12.531110           1             0.402573    [1[8[6]]]                                                   
  H           7.650247            -5.677263            -9.801544            1             0.031932    [1[6[8][1][1]]]                                             
  H           6.791720            -7.005691            -10.409281           1             0.031932    [1[6[8][1][1]]]                                             
  H           8.584671            -6.856974            -10.471076           1             0.031932    [1[6[8][1][1]]]                                             
