12

  C          -3.823675             4.289136            -8.766144            0             0.099454    [6[8[1]][1][1][1]]                                          
  O          -4.377185             5.267155            -9.559197            0            -0.597823    [8[6[1][1][1]][1]]                                          
  H          -4.576584             6.000657            -8.961619            0             0.402573    [1[8[6]]]                                                   
  H          -2.831440             4.544331            -8.466993            0             0.031932    [1[6[8][1][1]]]                                             
  H          -4.245802             4.234392            -7.782589            0             0.031932    [1[6[8][1][1]]]                                             
  H          -3.906820             3.308003            -9.284825            0             0.031932    [1[6[8][1][1]]]                                             
  C           0.396485             1.545882            -10.724549           1             0.099454    [6[8[1]][1][1][1]]                                          
  O          -0.826474             2.070652            -10.288100           1            -0.597823    [8[6[1][1][1]][1]]                                          
  H          -0.568896             2.435322            -9.420965            1             0.402573    [1[8[6]]]                                                   
  H           0.355493             1.121078            -11.721559           1             0.031932    [1[6[8][1][1]]]                                             
  H           1.248323             2.261888            -10.577302           1             0.031932    [1[6[8][1][1]]]                                             
  H           0.667296             0.698376            -10.055047           1             0.031932    [1[6[8][1][1]]]                                             
