12

  C           1.536306            -11.056976           -5.681817            0             0.099454    [6[8[1]][1][1][1]]                                          
  O           1.443532            -9.917052            -6.467092            0            -0.597823    [8[6[1][1][1]][1]]                                          
  H           2.378982            -9.721470            -6.647489            0             0.402573    [1[8[6]]]                                                   
  H           0.576598            -11.390417           -5.272839            0             0.031932    [1[6[8][1][1]]]                                             
  H           1.904503            -11.918158           -6.229317            0             0.031932    [1[6[8][1][1]]]                                             
  H           2.254301            -10.950616           -4.839417            0             0.031932    [1[6[8][1][1]]]                                             
  C          -1.330851            -10.705206           -8.468312            1             0.099454    [6[8[1]][1][1][1]]                                          
  O          -0.721877            -9.436088            -8.530991            1            -0.597823    [8[6[1][1][1]][1]]                                          
  H           0.125809            -9.412764            -8.041637            1             0.402573    [1[8[6]]]                                                   
  H          -1.791851            -10.825773           -7.439621            1             0.031932    [1[6[8][1][1]]]                                             
  H          -2.176712            -10.739662           -9.175659            1             0.031932    [1[6[8][1][1]]]                                             
  H          -0.641799            -11.506945           -8.705691            1             0.031932    [1[6[8][1][1]]]                                             
