12

  C          -4.905139             5.262568            -10.301868           0             0.099454    [6[8[1]][1][1][1]]                                          
  O          -4.333922             5.021783            -9.019390            0            -0.597823    [8[6[1][1][1]][1]]                                          
  H          -4.942635             5.445550            -8.437080            0             0.402573    [1[8[6]]]                                                   
  H          -4.087589             5.285542            -11.069867           0             0.031932    [1[6[8][1][1]]]                                             
  H          -5.760049             4.649201            -10.628340           0             0.031932    [1[6[8][1][1]]]                                             
  H          -5.338715             6.228068            -10.267397           0             0.031932    [1[6[8][1][1]]]                                             
  C          -1.391945             3.297520            -7.878447            1             0.099454    [6[8[1]][1][1][1]]                                          
  O          -1.548555             4.014057            -9.007819            1            -0.597823    [8[6[1][1][1]][1]]                                          
  H          -2.491489             4.133702            -9.258821            1             0.402573    [1[8[6]]]                                                   
  H          -1.953114             3.750853            -7.007505            1             0.031932    [1[6[8][1][1]]]                                             
  H          -1.819787             2.295117            -8.033450            1             0.031932    [1[6[8][1][1]]]                                             
  H          -0.295701             3.124531            -7.632486            1             0.031932    [1[6[8][1][1]]]                                             
