12

  C           1.713433            -5.196340             6.770740            0             0.099454    [6[8[1]][1][1][1]]                                          
  O           1.791775            -5.028510             8.127956            0            -0.597823    [8[6[1][1][1]][1]]                                          
  H           1.810049            -5.951920             8.498394            0             0.402573    [1[8[6]]]                                                   
  H           1.500596            -4.238577             6.340873            0             0.031932    [1[6[8][1][1]]]                                             
  H           2.666201            -5.539737             6.312505            0             0.031932    [1[6[8][1][1]]]                                             
  H           0.880092            -5.841664             6.551515            0             0.031932    [1[6[8][1][1]]]                                             
  C           5.692317            -5.416236             10.598718           1             0.099454    [6[8[1]][1][1][1]]                                          
  O           4.594151            -6.221990             10.637493           1            -0.597823    [8[6[1][1][1]][1]]                                          
  H           4.007334            -5.770975             10.020073           1             0.402573    [1[8[6]]]                                                   
  H           6.214354            -5.317533             11.589979           1             0.031932    [1[6[8][1][1]]]                                             
  H           6.364559            -5.729289             9.777125            1             0.031932    [1[6[8][1][1]]]                                             
  H           5.299963            -4.342257             10.394742           1             0.031932    [1[6[8][1][1]]]                                             
