12

  C           6.919625             2.237632             2.945838            0             0.099454    [6[8[1]][1][1][1]]                                          
  O           7.105568             3.614791             3.004067            0            -0.597823    [8[6[1][1][1]][1]]                                          
  H           7.927648             3.903414             2.617584            0             0.402573    [1[8[6]]]                                                   
  H           7.422164             1.719098             3.729250            0             0.031932    [1[6[8][1][1]]]                                             
  H           5.841692             1.966989             3.041488            0             0.031932    [1[6[8][1][1]]]                                             
  H           7.318918             1.785904             1.953686            0             0.031932    [1[6[8][1][1]]]                                             
  C           8.513817             3.675508            -0.383568            1             0.099454    [6[8[1]][1][1][1]]                                          
  O           9.143687             3.578404             0.864481            1            -0.597823    [8[6[1][1][1]][1]]                                          
  H           9.463190             2.722025             0.901324            1             0.402573    [1[8[6]]]                                                   
  H           8.877662             2.865182            -1.066605            1             0.031932    [1[6[8][1][1]]]                                             
  H           7.428917             3.486082            -0.322136            1             0.031932    [1[6[8][1][1]]]                                             
  H           8.817236             4.613234            -0.872877            1             0.031932    [1[6[8][1][1]]]                                             
