12

  C          -9.672709             4.006744             2.552932            0             0.099454    [6[8[1]][1][1][1]]                                          
  O          -10.300829            4.988320             3.368327            0            -0.597823    [8[6[1][1][1]][1]]                                          
  H          -10.582800            4.429678             4.110281            0             0.402573    [1[8[6]]]                                                   
  H          -10.532027            3.583830             1.937451            0             0.031932    [1[6[8][1][1]]]                                             
  H          -9.091793             4.425824             1.762786            0             0.031932    [1[6[8][1][1]]]                                             
  H          -9.184682             3.240365             3.147805            0             0.031932    [1[6[8][1][1]]]                                             
  C          -6.355175             4.803348            -0.633554            1             0.099454    [6[8[1]][1][1][1]]                                          
  O          -6.165207             4.170899             0.606047            1            -0.597823    [8[6[1][1][1]][1]]                                          
  H          -6.825564             3.483296             0.638373            1             0.402573    [1[8[6]]]                                                   
  H          -7.380405             5.187809            -0.791474            1             0.031932    [1[6[8][1][1]]]                                             
  H          -5.628031             5.602576            -0.976239            1             0.031932    [1[6[8][1][1]]]                                             
  H          -6.191720             4.108695            -1.435763            1             0.031932    [1[6[8][1][1]]]                                             
