12

  C          -2.638835            -6.614666            -7.420561            0             0.099454    [6[8[1]][1][1][1]]                                          
  O          -2.992376            -6.578243            -8.791841            0            -0.597823    [8[6[1][1][1]][1]]                                          
  H          -2.217192            -6.413573            -9.277582            0             0.402573    [1[8[6]]]                                                   
  H          -1.667935            -6.968071            -7.283540            0             0.031932    [1[6[8][1][1]]]                                             
  H          -2.582873            -5.608869            -6.989358            0             0.031932    [1[6[8][1][1]]]                                             
  H          -3.339959            -7.212623            -6.807963            0             0.031932    [1[6[8][1][1]]]                                             
  C          -1.063751            -8.098231            -4.243452            1             0.099454    [6[8[1]][1][1][1]]                                          
  O          -2.222787            -8.313218            -5.011875            1            -0.597823    [8[6[1][1][1]][1]]                                          
  H          -2.807360            -8.939454            -4.540298            1             0.402573    [1[8[6]]]                                                   
  H          -0.253067            -8.872998            -4.413000            1             0.031932    [1[6[8][1][1]]]                                             
  H          -0.578344            -7.134077            -4.487361            1             0.031932    [1[6[8][1][1]]]                                             
  H          -1.390768            -8.202461            -3.210143            1             0.031932    [1[6[8][1][1]]]                                             
