12

  C           0.003535            -5.877715             10.140912           0             0.099454    [6[8[1]][1][1][1]]                                          
  O           0.318346            -4.605744             10.783172           0            -0.597823    [8[6[1][1][1]][1]]                                          
  H           1.007645            -4.757691             11.420423           0             0.402573    [1[8[6]]]                                                   
  H          -0.478516            -5.721957             9.157673            0             0.031932    [1[6[8][1][1]]]                                             
  H           0.881340            -6.498868             10.075310           0             0.031932    [1[6[8][1][1]]]                                             
  H          -0.767575            -6.350094             10.780891           0             0.031932    [1[6[8][1][1]]]                                             
  C          -1.836438            -10.187012            8.477243            1             0.099454    [6[8[1]][1][1][1]]                                          
  O          -3.182947            -10.585800            8.737161            1            -0.597823    [8[6[1][1][1]][1]]                                          
  H          -3.371845            -11.517466            8.417675            1             0.402573    [1[8[6]]]                                                   
  H          -1.785848            -9.646708             7.498774            1             0.031932    [1[6[8][1][1]]]                                             
  H          -1.443843            -9.424437             9.185187            1             0.031932    [1[6[8][1][1]]]                                             
  H          -1.188261            -11.073030            8.387025            1             0.031932    [1[6[8][1][1]]]                                             
