12

  C          -9.854973             0.199510             8.305999            0             0.099454    [6[8[1]][1][1][1]]                                          
  O          -11.049584            0.926030             8.206621            0            -0.597823    [8[6[1][1][1]][1]]                                          
  H          -11.210911            1.208514             7.307771            0             0.402573    [1[8[6]]]                                                   
  H          -9.345512             0.270205             9.273094            0             0.031932    [1[6[8][1][1]]]                                             
  H          -9.925177            -0.857745             8.073375            0             0.031932    [1[6[8][1][1]]]                                             
  H          -9.164374             0.696290             7.560316            0             0.031932    [1[6[8][1][1]]]                                             
  C          -10.646409            4.650670             8.087570            1             0.099454    [6[8[1]][1][1][1]]                                          
  O          -10.370866            4.493579             6.619864            1            -0.597823    [8[6[1][1][1]][1]]                                          
  H          -10.797936            5.257748             6.260719            1             0.402573    [1[8[6]]]                                                   
  H          -9.797403             5.107603             8.575869            1             0.031932    [1[6[8][1][1]]]                                             
  H          -11.576639            5.126904             8.417608            1             0.031932    [1[6[8][1][1]]]                                             
  H          -10.649536            3.713750             8.608090            1             0.031932    [1[6[8][1][1]]]                                             
