12

  C          -1.143472             3.251015            -8.383428            0             0.099454    [6[8[1]][1][1][1]]                                          
  O          -1.942154             2.903486            -9.464382            0            -0.597823    [8[6[1][1][1]][1]]                                          
  H          -1.698939             3.509440            -10.183064           0             0.402573    [1[8[6]]]                                                   
  H          -1.426148             2.504044            -7.571571            0             0.031932    [1[6[8][1][1]]]                                             
  H          -0.084644             3.152513            -8.594473            0             0.031932    [1[6[8][1][1]]]                                             
  H          -1.392792             4.268874            -8.070492            0             0.031932    [1[6[8][1][1]]]                                             
  C           0.647769             0.124529            -6.481577            1             0.099454    [6[8[1]][1][1][1]]                                          
  O          -0.226637            -0.471103            -5.579255            1            -0.597823    [8[6[1][1][1]][1]]                                          
  H          -1.142298            -0.269324            -5.796997            1             0.402573    [1[8[6]]]                                                   
  H           0.812610             1.142135            -6.183510            1             0.031932    [1[6[8][1][1]]]                                             
  H           1.646017            -0.430610            -6.555215            1             0.031932    [1[6[8][1][1]]]                                             
  H           0.176068             0.014633            -7.407592            1             0.031932    [1[6[8][1][1]]]                                             
