12

  C          -0.749633             2.416253            -3.313901            0             0.099454    [6[8[1]][1][1][1]]                                          
  O          -0.861180             1.452458            -2.250456            0            -0.597823    [8[6[1][1][1]][1]]                                          
  H           0.018248             1.215378            -2.084135            0             0.402573    [1[8[6]]]                                                   
  H          -1.723585             2.657808            -3.810069            0             0.031932    [1[6[8][1][1]]]                                             
  H          -0.325219             3.272619            -2.879507            0             0.031932    [1[6[8][1][1]]]                                             
  H          -0.054227             2.091398            -4.053934            0             0.031932    [1[6[8][1][1]]]                                             
  C           0.159550            -0.695446            -5.283339            1             0.099454    [6[8[1]][1][1][1]]                                          
  O           1.357969             0.049257            -5.214653            1            -0.597823    [8[6[1][1][1]][1]]                                          
  H           1.669129            -0.184117            -4.308228            1             0.402573    [1[8[6]]]                                                   
  H           0.216482            -1.496743            -6.077616            1             0.031932    [1[6[8][1][1]]]                                             
  H          -0.113872            -1.182281            -4.345292            1             0.031932    [1[6[8][1][1]]]                                             
  H          -0.685406            -0.138870            -5.644733            1             0.031932    [1[6[8][1][1]]]                                             
