13

C  0.80292000          -0.35615000          -0.49446000         
C  2.24052000          -0.00287000          -0.14168000         
O  2.27809000           0.82109000           0.96310000         
C  3.45667000           1.26714000           1.46226000         
C  3.48017000           2.06242000           2.53047000         
H  0.79676000          -1.01952000          -1.38572000         
H  0.22600000           0.56312000          -0.72964000         
H  0.31775000          -0.88893000           0.35051000         
H  2.70824000           0.51288000          -1.00894000         
H  2.80017000          -0.94000000           0.07156000         
H  4.39375000           0.97818000           0.99304000         
H  4.43075000           2.41350000           2.92137000         
H  2.55943000           2.36594000           3.01793000         
