12

  C          -0.584460             9.833385            -7.370606            0             0.099454    [6[8[1]][1][1][1]]                                          
  O           0.262817             9.973202            -6.259486            0            -0.597823    [8[6[1][1][1]][1]]                                          
  H          -0.083268             10.436978           -5.479950            0             0.402573    [1[8[6]]]                                                   
  H          -1.227082             10.668618           -7.422794            0             0.031932    [1[6[8][1][1]]]                                             
  H           0.023229             9.743565            -8.282138            0             0.031932    [1[6[8][1][1]]]                                             
  H          -1.232432             8.935795            -7.342917            0             0.031932    [1[6[8][1][1]]]                                             
  C          -0.625806             5.810472            -9.874929            1             0.099454    [6[8[1]][1][1][1]]                                          
  O           0.376086             6.112436            -10.788742           1            -0.597823    [8[6[1][1][1]][1]]                                          
  H           0.915324             6.570061            -10.169449           1             0.402573    [1[8[6]]]                                                   
  H          -0.324112             5.804178            -8.817376            1             0.031932    [1[6[8][1][1]]]                                             
  H          -1.405672             6.594113            -9.918091            1             0.031932    [1[6[8][1][1]]]                                             
  H          -1.220156             4.938651            -10.091798           1             0.031932    [1[6[8][1][1]]]                                             
