12

  C          -4.592135            -8.778354            -4.672863            0             0.099454    [6[8[1]][1][1][1]]                                          
  O          -4.996036            -7.685713            -3.782804            0            -0.597823    [8[6[1][1][1]][1]]                                          
  H          -4.696775            -7.821721            -2.928204            0             0.402573    [1[8[6]]]                                                   
  H          -3.534098            -9.010149            -4.638917            0             0.031932    [1[6[8][1][1]]]                                             
  H          -5.112055            -9.688766            -4.343416            0             0.031932    [1[6[8][1][1]]]                                             
  H          -4.938609            -8.647915            -5.698391            0             0.031932    [1[6[8][1][1]]]                                             
  C           0.180545            -10.297289           -5.058713            1             0.099454    [6[8[1]][1][1][1]]                                          
  O           1.490087            -9.987446            -4.952644            1            -0.597823    [8[6[1][1][1]][1]]                                          
  H           1.605232            -9.157271            -4.456743            1             0.402573    [1[8[6]]]                                                   
  H           0.049358            -11.348211           -5.207768            1             0.031932    [1[6[8][1][1]]]                                             
  H          -0.377861            -10.163069           -4.157175            1             0.031932    [1[6[8][1][1]]]                                             
  H          -0.419587            -9.736839            -5.776926            1             0.031932    [1[6[8][1][1]]]                                             
