12

  C          -7.605909             2.443021            -5.622041            0             0.099454    [6[8[1]][1][1][1]]                                          
  O          -8.394434             3.474753            -5.066151            0            -0.597823    [8[6[1][1][1]][1]]                                          
  H          -8.746984             3.268596            -4.163043            0             0.402573    [1[8[6]]]                                                   
  H          -6.908455             2.024404            -4.832031            0             0.031932    [1[6[8][1][1]]]                                             
  H          -8.242513             1.688588            -6.000919            0             0.031932    [1[6[8][1][1]]]                                             
  H          -7.027775             2.828739            -6.512241            0             0.031932    [1[6[8][1][1]]]                                             
  C          -11.198574            2.196297            -8.663899            1             0.099454    [6[8[1]][1][1][1]]                                          
  O          -9.934511             2.627828            -9.106042            1            -0.597823    [8[6[1][1][1]][1]]                                          
  H          -9.437128             2.008321            -9.679980            1             0.402573    [1[8[6]]]                                                   
  H          -11.242939            1.426187            -7.873173            1             0.031932    [1[6[8][1][1]]]                                             
  H          -11.747869            3.026897            -8.234249            1             0.031932    [1[6[8][1][1]]]                                             
  H          -11.859639            1.793048            -9.379719            1             0.031932    [1[6[8][1][1]]]                                             
