12

  C           4.888409             3.253564             1.564337            0             0.099454    [6[8[1]][1][1][1]]                                          
  O           3.677006             2.583596             1.661210            0            -0.597823    [8[6[1][1][1]][1]]                                          
  H           3.206091             3.184549             2.313653            0             0.402573    [1[8[6]]]                                                   
  H           4.815171             4.370015             1.276239            0             0.031932    [1[6[8][1][1]]]                                             
  H           5.420325             3.232220             2.517922            0             0.031932    [1[6[8][1][1]]]                                             
  H           5.548820             2.761538             0.826897            0             0.031932    [1[6[8][1][1]]]                                             
  C           2.048376             4.863387             1.672935            1             0.099454    [6[8[1]][1][1][1]]                                          
  O           2.054165             6.299924             1.791389            1            -0.597823    [8[6[1][1][1]][1]]                                          
  H           2.832459             6.575149             2.255047            1             0.402573    [1[8[6]]]                                                   
  H           1.922047             4.439233             2.619953            1             0.031932    [1[6[8][1][1]]]                                             
  H           1.223006             4.407376             1.191580            1             0.031932    [1[6[8][1][1]]]                                             
  H           3.058283             4.518590             1.360563            1             0.031932    [1[6[8][1][1]]]                                             
