12

  C          -3.794272             2.293692             8.882736            0             0.099454    [6[8[1]][1][1][1]]                                          
  O          -4.806415             2.716572             7.958103            0            -0.597823    [8[6[1][1][1]][1]]                                          
  H          -5.271343             1.986556             7.505574            0             0.402573    [1[8[6]]]                                                   
  H          -3.395406             1.318723             8.520923            0             0.031932    [1[6[8][1][1]]]                                             
  H          -3.000333             2.959490             8.972679            0             0.031932    [1[6[8][1][1]]]                                             
  H          -4.124509             2.106691             9.882683            0             0.031932    [1[6[8][1][1]]]                                             
  C          -6.319022             1.751159             5.059910            1             0.099454    [6[8[1]][1][1][1]]                                          
  O          -6.857394             1.523147             6.296902            1            -0.597823    [8[6[1][1][1]][1]]                                          
  H          -7.736044             1.859153             6.281797            1             0.402573    [1[8[6]]]                                                   
  H          -5.269929             1.724765             5.106357            1             0.031932    [1[6[8][1][1]]]                                             
  H          -6.608568             0.985461             4.282150            1             0.031932    [1[6[8][1][1]]]                                             
  H          -6.567316             2.808178             4.780656            1             0.031932    [1[6[8][1][1]]]                                             
