12

  C          -2.198624             9.615270             1.579089            0             0.099454    [6[8[1]][1][1][1]]                                          
  O          -2.591249             8.515751             2.357670            0            -0.597823    [8[6[1][1][1]][1]]                                          
  H          -3.042198             8.817431             3.150511            0             0.402573    [1[8[6]]]                                                   
  H          -2.964768             10.342810            1.400862            0             0.031932    [1[6[8][1][1]]]                                             
  H          -1.380174             10.190098            2.092665            0             0.031932    [1[6[8][1][1]]]                                             
  H          -1.801923             9.420872             0.610234            0             0.031932    [1[6[8][1][1]]]                                             
  C           1.018940             6.694985            -1.032136            1             0.099454    [6[8[1]][1][1][1]]                                          
  O           2.230174             6.372593            -0.305373            1            -0.597823    [8[6[1][1][1]][1]]                                          
  H           2.404146             5.410996            -0.444812            1             0.402573    [1[8[6]]]                                                   
  H           0.998442             7.759421            -1.303204            1             0.031932    [1[6[8][1][1]]]                                             
  H           1.070386             6.146931            -2.024044            1             0.031932    [1[6[8][1][1]]]                                             
  H           0.123242             6.356830            -0.452372            1             0.031932    [1[6[8][1][1]]]                                             
