12

  C          -10.407727            0.770466             3.631397            0             0.099454    [6[8[1]][1][1][1]]                                          
  O          -9.562463            -0.223850             3.141265            0            -0.597823    [8[6[1][1][1]][1]]                                          
  H          -9.421107            -0.852578             3.813185            0             0.402573    [1[8[6]]]                                                   
  H          -11.475602            0.633338             3.382502            0             0.031932    [1[6[8][1][1]]]                                             
  H          -10.279834            0.901651             4.710946            0             0.031932    [1[6[8][1][1]]]                                             
  H          -10.139632            1.661452             3.115065            0             0.031932    [1[6[8][1][1]]]                                             
  C          -7.614321            -1.482426            -2.334530            1             0.099454    [6[8[1]][1][1][1]]                                          
  O          -8.009043            -0.873774            -1.125969            1            -0.597823    [8[6[1][1][1]][1]]                                          
  H          -7.748097             0.081051            -1.170580            1             0.402573    [1[8[6]]]                                                   
  H          -7.865185            -0.945914            -3.205777            1             0.031932    [1[6[8][1][1]]]                                             
  H          -6.470210            -1.582579            -2.381032            1             0.031932    [1[6[8][1][1]]]                                             
  H          -7.997989            -2.487817            -2.512743            1             0.031932    [1[6[8][1][1]]]                                             
