12

  C           5.076919            -10.100200           -4.491884            0             0.099454    [6[8[1]][1][1][1]]                                          
  O           4.875564            -8.751591            -4.271763            0            -0.597823    [8[6[1][1][1]][1]]                                          
  H           5.776038            -8.429535            -4.025102            0             0.402573    [1[8[6]]]                                                   
  H           4.079127            -10.597135           -4.605720            0             0.031932    [1[6[8][1][1]]]                                             
  H           5.674618            -10.291725           -5.409982            0             0.031932    [1[6[8][1][1]]]                                             
  H           5.579315            -10.598143           -3.609433            0             0.031932    [1[6[8][1][1]]]                                             
  C           8.747620            -8.174031            -4.794957            1             0.099454    [6[8[1]][1][1][1]]                                          
  O           9.685600            -9.213178            -4.489705            1            -0.597823    [8[6[1][1][1]][1]]                                          
  H           9.803982            -9.713573            -5.280415            1             0.402573    [1[8[6]]]                                                   
  H           7.703945            -8.576301            -4.749751            1             0.031932    [1[6[8][1][1]]]                                             
  H           8.705569            -7.484934            -3.953919            1             0.031932    [1[6[8][1][1]]]                                             
  H           8.888118            -7.622195            -5.692047            1             0.031932    [1[6[8][1][1]]]                                             
