12

  C           8.231847             4.812904             2.218231            0             0.099454    [6[8[1]][1][1][1]]                                          
  O           7.857317             4.358539             3.507066            0            -0.597823    [8[6[1][1][1]][1]]                                          
  H           8.511085             3.740002             3.820354            0             0.402573    [1[8[6]]]                                                   
  H           9.259510             4.563071             1.868465            0             0.031932    [1[6[8][1][1]]]                                             
  H           7.425748             4.418321             1.520043            0             0.031932    [1[6[8][1][1]]]                                             
  H           8.132544             5.888729             2.119775            0             0.031932    [1[6[8][1][1]]]                                             
  C           4.789831             4.842195             4.673636            1             0.099454    [6[8[1]][1][1][1]]                                          
  O           4.834256             4.522513             3.376665            1            -0.597823    [8[6[1][1][1]][1]]                                          
  H           5.779525             4.363818             3.227645            1             0.402573    [1[8[6]]]                                                   
  H           3.778847             5.077454             4.981349            1             0.031932    [1[6[8][1][1]]]                                             
  H           5.025754             4.006608             5.322962            1             0.031932    [1[6[8][1][1]]]                                             
  H           5.505143             5.687903             4.910589            1             0.031932    [1[6[8][1][1]]]                                             
