12

  C           3.918612            -5.045741             2.896027            0             0.099454    [6[8[1]][1][1][1]]                                          
  O           4.275113            -3.748419             2.773380            0            -0.597823    [8[6[1][1][1]][1]]                                          
  H           5.177996            -3.619790             2.820687            0             0.402573    [1[8[6]]]                                                   
  H           3.911424            -5.560728             1.980114            0             0.031932    [1[6[8][1][1]]]                                             
  H           4.669848            -5.508734             3.468600            0             0.031932    [1[6[8][1][1]]]                                             
  H           2.869578            -5.280809             3.312576            0             0.031932    [1[6[8][1][1]]]                                             
  C           8.386589            -2.071084             0.136548            1             0.099454    [6[8[1]][1][1][1]]                                          
  O           8.601120            -2.945565             1.138944            1            -0.597823    [8[6[1][1][1]][1]]                                          
  H           8.944620            -3.784595             0.801443            1             0.402573    [1[8[6]]]                                                   
  H           9.232089            -1.678624            -0.281873            1             0.031932    [1[6[8][1][1]]]                                             
  H           7.906528            -2.696329            -0.613378            1             0.031932    [1[6[8][1][1]]]                                             
  H           7.677471            -1.266587             0.351767            1             0.031932    [1[6[8][1][1]]]                                             
