6

  C          -10.180925           -2.569468            -8.820146            0             0.089063    [6[8[1]][1][1][1]]                                          
  O          -9.374320            -2.871517            -9.935077            0            -0.604789    [8[6[1][1][1]][1]]                                          
  H          -9.673605            -2.337938            -10.677268           0             0.406250    [1[8[6]]]                                                   
  H          -11.144479           -3.090517            -8.951312            0             0.036492    [1[6[8][1][1]]]                                             
  H          -9.730954            -2.985185            -7.897724            0             0.036492    [1[6[8][1][1]]]                                             
  H          -10.347980           -1.480380            -8.781422            0             0.036492    [1[6[8][1][1]]]                                             
