12

  C           2.808889             0.844054            -8.414163            0             0.099454    [6[8[1]][1][1][1]]                                          
  O           2.751306            -0.322919            -7.643315            0            -0.597823    [8[6[1][1][1]][1]]                                          
  H           2.321928            -0.062151            -6.767259            0             0.402573    [1[8[6]]]                                                   
  H           3.391022             0.885911            -9.374107            0             0.031932    [1[6[8][1][1]]]                                             
  H           1.750066             0.987597            -8.760820            0             0.031932    [1[6[8][1][1]]]                                             
  H           3.044555             1.683032            -7.747926            0             0.031932    [1[6[8][1][1]]]                                             
  C           6.493187             1.871851            -10.034547           1             0.099454    [6[8[1]][1][1][1]]                                          
  O           6.377108             2.785616            -11.078557           1            -0.597823    [8[6[1][1][1]][1]]                                          
  H           5.880619             2.394599            -11.838950           1             0.402573    [1[8[6]]]                                                   
  H           5.716347             2.026950            -9.262070            1             0.031932    [1[6[8][1][1]]]                                             
  H           6.441241             0.745366            -10.393195           1             0.031932    [1[6[8][1][1]]]                                             
  H           7.463750             1.975361            -9.514436            1             0.031932    [1[6[8][1][1]]]                                             
