12

  C           2.808889             0.844054            -8.414163            0             0.099454    [6[8[1]][1][1][1]]                                          
  O           2.751306            -0.322919            -7.643315            0            -0.597823    [8[6[1][1][1]][1]]                                          
  H           2.321928            -0.062151            -6.767259            0             0.402573    [1[8[6]]]                                                   
  H           3.391022             0.885911            -9.374107            0             0.031932    [1[6[8][1][1]]]                                             
  H           1.750066             0.987597            -8.760820            0             0.031932    [1[6[8][1][1]]]                                             
  H           3.044555             1.683032            -7.747926            0             0.031932    [1[6[8][1][1]]]                                             
  C           2.918165             5.299627            -5.197540            1             0.099454    [6[8[1]][1][1][1]]                                          
  O           3.253149             4.996970            -6.525041            1            -0.597823    [8[6[1][1][1]][1]]                                          
  H           2.408468             4.743285            -6.901671            1             0.402573    [1[8[6]]]                                                   
  H           2.596880             6.344915            -4.937334            1             0.031932    [1[6[8][1][1]]]                                             
  H           2.037394             4.738800            -4.948837            1             0.031932    [1[6[8][1][1]]]                                             
  H           3.780129             5.006225            -4.529170            1             0.031932    [1[6[8][1][1]]]                                             
