12

  C           7.449165            -7.833267            -3.684489            0             0.099454    [6[8[1]][1][1][1]]                                          
  O           8.673282            -7.312019            -3.276682            0            -0.597823    [8[6[1][1][1]][1]]                                          
  H           8.453897            -6.609753            -2.633320            0             0.402573    [1[8[6]]]                                                   
  H           7.556963            -8.725010            -4.270334            0             0.031932    [1[6[8][1][1]]]                                             
  H           6.723539            -8.104884            -2.806945            0             0.031932    [1[6[8][1][1]]]                                             
  H           6.928298            -7.117201            -4.257824            0             0.031932    [1[6[8][1][1]]]                                             
  C           8.866434            -5.670255             1.599576            1             0.099454    [6[8[1]][1][1][1]]                                          
  O           8.826219            -6.242115             0.320138            1            -0.597823    [8[6[1][1][1]][1]]                                          
  H           9.201282            -7.120479             0.479184            1             0.402573    [1[8[6]]]                                                   
  H           9.917216            -5.639698             2.097436            1             0.031932    [1[6[8][1][1]]]                                             
  H           8.590138            -4.618633             1.682096            1             0.031932    [1[6[8][1][1]]]                                             
  H           8.329119            -6.216930             2.375969            1             0.031932    [1[6[8][1][1]]]                                             
