12

  C          -1.143472             3.251015            -8.383428            0             0.099454    [6[8[1]][1][1][1]]                                          
  O          -1.942154             2.903486            -9.464382            0            -0.597823    [8[6[1][1][1]][1]]                                          
  H          -1.698939             3.509440            -10.183064           0             0.402573    [1[8[6]]]                                                   
  H          -1.426148             2.504044            -7.571571            0             0.031932    [1[6[8][1][1]]]                                             
  H          -0.084644             3.152513            -8.594473            0             0.031932    [1[6[8][1][1]]]                                             
  H          -1.392792             4.268874            -8.070492            0             0.031932    [1[6[8][1][1]]]                                             
  C          -2.415535            -0.971302            -7.674667            1             0.099454    [6[8[1]][1][1][1]]                                          
  O          -3.117178            -0.081729            -6.746123            1            -0.597823    [8[6[1][1][1]][1]]                                          
  H          -3.902999             0.348662            -7.180337            1             0.402573    [1[8[6]]]                                                   
  H          -1.751958            -0.437656            -8.368405            1             0.031932    [1[6[8][1][1]]]                                             
  H          -1.859473            -1.788429            -7.245069            1             0.031932    [1[6[8][1][1]]]                                             
  H          -3.184254            -1.533560            -8.318336            1             0.031932    [1[6[8][1][1]]]                                             
