6
Coordinates from ORCA-job 1_geo_opt
  C   3.01120820065079     -1.18123314151330      0.59871130350219
  O   4.39454474346319     -1.12836156520605      0.87449113250747
  H   4.77231191601299     -0.37867533174359      0.41228469706447
  H   2.80628802403598     -1.31928290730308     -0.46912812934545
  H   2.61138706715889     -2.04056287359778      1.13606575949534
  H   2.48462904867816     -0.28482618063619      0.94584623677598
