6
Indices: 0 1 2 3 4 5
C             3.01114986737749    -1.18121005144435     0.59868472581646    [6[8[1]][1][1][1]]
O             4.39451518171892    -1.12836291907877     0.87450042925235    [8[6[1][1][1]][1]]
H             4.77235371109090    -0.37870897175725     0.41230018369435    [1[8[6]]]
H             2.80627656932741    -1.31927777765334    -0.46915674595360    [1[6[8][1][1]]]
H             2.61147434785251    -2.04057787919923     1.13609128817552    [1[6[8][1][1]]]
H             2.48459948601716    -0.28480401795279     0.94585180537291    [1[6[8][1][1]]]
