12

  C          -2.564663            -10.829491            0.819036            0             0.099454    [6[8[1]][1][1][1]]                                          
  O          -1.332082            -11.025152            1.444712            0            -0.597823    [8[6[1][1][1]][1]]                                          
  H          -1.579110            -11.609815            2.161669            0             0.402573    [1[8[6]]]                                                   
  H          -2.334350            -10.176657           -0.055430            0             0.031932    [1[6[8][1][1]]]                                             
  H          -2.996839            -11.752730            0.453297            0             0.031932    [1[6[8][1][1]]]                                             
  H          -3.253794            -10.236978            1.399588            0             0.031932    [1[6[8][1][1]]]                                             
  C          -7.803609            -10.950523            0.162393            1             0.099454    [6[8[1]][1][1][1]]                                          
  O          -7.511823            -9.544146            -0.088906            1            -0.597823    [8[6[1][1][1]][1]]                                          
  H          -8.132574            -9.169331            -0.766150            1             0.402573    [1[8[6]]]                                                   
  H          -6.958207            -11.511024            0.455349            1             0.031932    [1[6[8][1][1]]]                                             
  H          -8.632460            -10.992537            0.912694            1             0.031932    [1[6[8][1][1]]]                                             
  H          -8.119000            -11.448685           -0.746248            1             0.031932    [1[6[8][1][1]]]                                             
