12

  C          -2.795325             9.217840             5.555766            0             0.099454    [6[8[1]][1][1][1]]                                          
  O          -3.946272             9.686863             6.213946            0            -0.597823    [8[6[1][1][1]][1]]                                          
  H          -3.969267             9.351075             7.120477            0             0.402573    [1[8[6]]]                                                   
  H          -2.991524             9.209093             4.464861            0             0.031932    [1[6[8][1][1]]]                                             
  H          -1.885058             9.769403             5.855998            0             0.031932    [1[6[8][1][1]]]                                             
  H          -2.593840             8.207868             5.831886            0             0.031932    [1[6[8][1][1]]]                                             
  C          -0.240587             10.641804            7.865057            1             0.099454    [6[8[1]][1][1][1]]                                          
  O           0.666583             10.079060            8.810300            1            -0.597823    [8[6[1][1][1]][1]]                                          
  H           1.484784             10.337458            8.448530            1             0.402573    [1[8[6]]]                                                   
  H          -0.117658             10.286621            6.892133            1             0.031932    [1[6[8][1][1]]]                                             
  H          -1.280444             10.364790            8.099353            1             0.031932    [1[6[8][1][1]]]                                             
  H          -0.135803             11.692860            7.881449            1             0.031932    [1[6[8][1][1]]]                                             
