12

  C          -5.799757            -5.382301            -3.309285            0             0.099454    [6[8[1]][1][1][1]]                                          
  O          -5.571578            -6.796406            -3.245755            0            -0.597823    [8[6[1][1][1]][1]]                                          
  H          -6.066309            -7.120056            -2.492047            0             0.402573    [1[8[6]]]                                                   
  H          -4.931166            -4.812003            -2.829833            0             0.031932    [1[6[8][1][1]]]                                             
  H          -5.700627            -5.082467            -4.383925            0             0.031932    [1[6[8][1][1]]]                                             
  H          -6.754512            -4.977609            -3.005592            0             0.031932    [1[6[8][1][1]]]                                             
  C          -8.729305            -8.214980            -3.029853            1             0.099454    [6[8[1]][1][1][1]]                                          
  O          -8.095846            -7.329674            -2.136110            1            -0.597823    [8[6[1][1][1]][1]]                                          
  H          -8.783612            -7.055352            -1.455014            1             0.402573    [1[8[6]]]                                                   
  H          -9.086881            -9.162493            -2.596128            1             0.031932    [1[6[8][1][1]]]                                             
  H          -9.593081            -7.776695            -3.531411            1             0.031932    [1[6[8][1][1]]]                                             
  H          -7.946672            -8.537519            -3.705466            1             0.031932    [1[6[8][1][1]]]                                             
