12

  C           3.109948            -9.032840            -10.902030           0             0.099454    [6[8[1]][1][1][1]]                                          
  O           3.398500            -8.189306            -9.812126            0            -0.597823    [8[6[1][1][1]][1]]                                          
  H           2.667794            -8.164677            -9.192085            0             0.402573    [1[8[6]]]                                                   
  H           2.527054            -9.914284            -10.648775           0             0.031932    [1[6[8][1][1]]]                                             
  H           2.584791            -8.426579            -11.676514           0             0.031932    [1[6[8][1][1]]]                                             
  H           4.025159            -9.343973            -11.343113           0             0.031932    [1[6[8][1][1]]]                                             
  C           5.872603            -7.265969            -7.790391            1             0.099454    [6[8[1]][1][1][1]]                                          
  O           7.028637            -7.927635            -7.277919            1            -0.597823    [8[6[1][1][1]][1]]                                          
  H           7.342080            -8.513924            -7.926451            1             0.402573    [1[8[6]]]                                                   
  H           6.144789            -6.755487            -8.739153            1             0.031932    [1[6[8][1][1]]]                                             
  H           5.013410            -7.961198            -7.953895            1             0.031932    [1[6[8][1][1]]]                                             
  H           5.525942            -6.520121            -7.110344            1             0.031932    [1[6[8][1][1]]]                                             
