12

  C          -3.440480             1.608124            -5.363870            0             0.099454    [6[8[1]][1][1][1]]                                          
  O          -4.023051             1.698251            -6.686188            0            -0.597823    [8[6[1][1][1]][1]]                                          
  H          -4.350094             0.892071            -7.073146            0             0.402573    [1[8[6]]]                                                   
  H          -4.299878             1.217766            -4.707092            0             0.031932    [1[6[8][1][1]]]                                             
  H          -2.598717             0.960056            -5.139841            0             0.031932    [1[6[8][1][1]]]                                             
  H          -3.210669             2.597576            -4.898620            0             0.031932    [1[6[8][1][1]]]                                             
  C          -5.626955             5.201464            -5.698041            1             0.099454    [6[8[1]][1][1][1]]                                          
  O          -6.120893             5.607190            -4.461843            1            -0.597823    [8[6[1][1][1]][1]]                                          
  H          -7.011624             5.750783            -4.706784            1             0.402573    [1[8[6]]]                                                   
  H          -5.858184             5.795319            -6.573045            1             0.031932    [1[6[8][1][1]]]                                             
  H          -4.516198             5.276372            -5.727805            1             0.031932    [1[6[8][1][1]]]                                             
  H          -5.579296             4.171457            -5.897865            1             0.031932    [1[6[8][1][1]]]                                             
