12

  C           8.410197             3.010015            -0.062294            0             0.099454    [6[8[1]][1][1][1]]                                          
  O           8.200692             3.657938            -1.307122            0            -0.597823    [8[6[1][1][1]][1]]                                          
  H           9.016419             3.833738            -1.740553            0             0.402573    [1[8[6]]]                                                   
  H           7.517326             2.979493             0.495077            0             0.031932    [1[6[8][1][1]]]                                             
  H           8.723145             1.926999            -0.151185            0             0.031932    [1[6[8][1][1]]]                                             
  H           9.352263             3.358656             0.548165            0             0.031932    [1[6[8][1][1]]]                                             
  C           7.578111             5.735210             1.799558            1             0.099454    [6[8[1]][1][1][1]]                                          
  O           8.812226             5.571385             1.140697            1            -0.597823    [8[6[1][1][1]][1]]                                          
  H           8.660273             5.853221             0.221928            1             0.402573    [1[8[6]]]                                                   
  H           7.820925             6.205367             2.736686            1             0.031932    [1[6[8][1][1]]]                                             
  H           6.831844             6.324698             1.321623            1             0.031932    [1[6[8][1][1]]]                                             
  H           7.178030             4.767879             1.976040            1             0.031932    [1[6[8][1][1]]]                                             
