12

  C          -5.021241            -8.045832             2.494545            0             0.099454    [6[8[1]][1][1][1]]                                          
  O          -5.989247            -7.308026             3.203133            0            -0.597823    [8[6[1][1][1]][1]]                                          
  H          -6.772489            -7.218520             2.640288            0             0.402573    [1[8[6]]]                                                   
  H          -4.100609            -8.060883             3.101031            0             0.031932    [1[6[8][1][1]]]                                             
  H          -5.262900            -9.056602             2.291049            0             0.031932    [1[6[8][1][1]]]                                             
  H          -4.833772            -7.685138             1.454732            0             0.031932    [1[6[8][1][1]]]                                             
  C          -1.127269            -7.318845            -0.716428            1             0.099454    [6[8[1]][1][1][1]]                                          
  O          -1.761045            -7.930545            -1.834784            1            -0.597823    [8[6[1][1][1]][1]]                                          
  H          -1.366283            -7.497340            -2.620460            1             0.402573    [1[8[6]]]                                                   
  H          -0.055521            -7.273837            -0.889200            1             0.031932    [1[6[8][1][1]]]                                             
  H          -1.556174            -6.300694            -0.631375            1             0.031932    [1[6[8][1][1]]]                                             
  H          -1.324985            -7.905945             0.209468            1             0.031932    [1[6[8][1][1]]]                                             
