6
Indices: 0 1 2 3 4 5
C             3.01150471297377    -1.18050601683363     0.59825065224009    [6[8[1]][1][1][1]]
O             4.39487002731520    -1.12765888446805     0.87406635567598    [8[6[1][1][1]][1]]
H             4.77199886549462    -0.37941300636797     0.41273425727072    [1[8[6]]]
H             2.80663141492369    -1.31857374304262    -0.46959081952997    [1[6[8][1][1]]]
H             2.61182919344879    -2.03987384458851     1.13565721459915    [1[6[8][1][1]]]
H             2.48495433161344    -0.28409998334207     0.94541773179654    [1[6[8][1][1]]]
