12

  C          -5.192736            -2.225288             6.637700            0             0.099454    [6[8[1]][1][1][1]]                                          
  O          -5.408181            -1.507434             5.386835            0            -0.597823    [8[6[1][1][1]][1]]                                          
  H          -4.517370            -1.420161             5.041826            0             0.402573    [1[8[6]]]                                                   
  H          -4.838058            -1.544956             7.408872            0             0.031932    [1[6[8][1][1]]]                                             
  H          -6.004383            -2.688830             7.117625            0             0.031932    [1[6[8][1][1]]]                                             
  H          -4.338427            -2.918640             6.592779            0             0.031932    [1[6[8][1][1]]]                                             
  C          -4.097909            -3.346080             10.176316           1             0.099454    [6[8[1]][1][1][1]]                                          
  O          -3.924344            -2.912605             11.484815           1            -0.597823    [8[6[1][1][1]][1]]                                          
  H          -2.951228            -2.867972             11.678836           1             0.402573    [1[8[6]]]                                                   
  H          -5.106961            -3.159464             9.760930            1             0.031932    [1[6[8][1][1]]]                                             
  H          -3.335578            -3.062956             9.464790            1             0.031932    [1[6[8][1][1]]]                                             
  H          -4.099230            -4.435365             10.272616           1             0.031932    [1[6[8][1][1]]]                                             
