12

  C           1.574594            -2.147675            -10.160961           0             0.099454    [6[8[1]][1][1][1]]                                          
  O           2.480961            -1.239558            -9.580505            0            -0.597823    [8[6[1][1][1]][1]]                                          
  H           1.907902            -0.652711            -9.047273            0             0.402573    [1[8[6]]]                                                   
  H           1.867958            -2.624338            -11.055404           0             0.031932    [1[6[8][1][1]]]                                             
  H           1.212482            -2.902957            -9.483861            0             0.031932    [1[6[8][1][1]]]                                             
  H           0.750634            -1.476024            -10.482996           0             0.031932    [1[6[8][1][1]]]                                             
  C           2.353081            -0.880350            -6.504355            1             0.099454    [6[8[1]][1][1][1]]                                          
  O           1.661441             0.076911            -7.250293            1            -0.597823    [8[6[1][1][1]][1]]                                          
  H           1.107674             0.525825            -6.662091            1             0.402573    [1[8[6]]]                                                   
  H           1.606776            -1.531496            -6.087425            1             0.031932    [1[6[8][1][1]]]                                             
  H           2.995200            -1.478688            -7.120673            1             0.031932    [1[6[8][1][1]]]                                             
  H           2.889406            -0.455719            -5.641669            1             0.031932    [1[6[8][1][1]]]                                             
