12

  C          -0.175415             3.465032            -7.904652            0             0.099454    [6[8[1]][1][1][1]]                                          
  O           0.826908             3.259719            -6.856385            0            -0.597823    [8[6[1][1][1]][1]]                                          
  H           0.711546             2.370965            -6.441981            0             0.402573    [1[8[6]]]                                                   
  H          -1.169431             3.420559            -7.469263            0             0.031932    [1[6[8][1][1]]]                                             
  H          -0.150010             4.457220            -8.371209            0             0.031932    [1[6[8][1][1]]]                                             
  H          -0.103712             2.536777            -8.615418            0             0.031932    [1[6[8][1][1]]]                                             
  C           2.918165             5.299627            -5.197540            1             0.099454    [6[8[1]][1][1][1]]                                          
  O           3.253149             4.996970            -6.525041            1            -0.597823    [8[6[1][1][1]][1]]                                          
  H           2.408468             4.743285            -6.901671            1             0.402573    [1[8[6]]]                                                   
  H           2.596880             6.344915            -4.937334            1             0.031932    [1[6[8][1][1]]]                                             
  H           2.037394             4.738800            -4.948837            1             0.031932    [1[6[8][1][1]]]                                             
  H           3.780129             5.006225            -4.529170            1             0.031932    [1[6[8][1][1]]]                                             
