12

  C           2.739132            -3.942480            -1.008213            0             0.099454    [6[8[1]][1][1][1]]                                          
  O           1.753076            -3.898102            -0.067553            0            -0.597823    [8[6[1][1][1]][1]]                                          
  H           2.322324            -4.076974             0.640020            0             0.402573    [1[8[6]]]                                                   
  H           3.466281            -4.735064            -0.636827            0             0.031932    [1[6[8][1][1]]]                                             
  H           2.402265            -4.144417            -2.020121            0             0.031932    [1[6[8][1][1]]]                                             
  H           3.256188            -3.012980            -0.955926            0             0.031932    [1[6[8][1][1]]]                                             
  C           4.019205            -4.668612            -4.497341            1             0.099454    [6[8[1]][1][1][1]]                                          
  O           5.234363            -5.378405            -4.296528            1            -0.597823    [8[6[1][1][1]][1]]                                          
  H           5.822919            -4.664041            -4.023461            1             0.402573    [1[8[6]]]                                                   
  H           3.331050            -5.228727            -5.111580            1             0.031932    [1[6[8][1][1]]]                                             
  H           3.541176            -4.341142            -3.567902            1             0.031932    [1[6[8][1][1]]]                                             
  H           4.146793            -3.760638            -5.083770            1             0.031932    [1[6[8][1][1]]]                                             
