12

  C          -8.188592             6.299989             8.631116            0             0.099454    [6[8[1]][1][1][1]]                                          
  O          -7.155412             5.502019             8.031139            0            -0.597823    [8[6[1][1][1]][1]]                                          
  H          -6.397915             6.059291             7.795830            0             0.402573    [1[8[6]]]                                                   
  H          -7.792349             7.169263             9.225792            0             0.031932    [1[6[8][1][1]]]                                             
  H          -9.011123             6.514553             7.862433            0             0.031932    [1[6[8][1][1]]]                                             
  H          -8.740029             5.735765             9.411922            0             0.031932    [1[6[8][1][1]]]                                             
  C          -8.858361             0.599760             5.266893            1             0.099454    [6[8[1]][1][1][1]]                                          
  O          -8.070024             0.651154             6.431593            1            -0.597823    [8[6[1][1][1]][1]]                                          
  H          -7.598837             1.501472             6.559302            1             0.402573    [1[8[6]]]                                                   
  H          -9.791042             1.088440             5.490044            1             0.031932    [1[6[8][1][1]]]                                             
  H          -8.279464             0.920911             4.389770            1             0.031932    [1[6[8][1][1]]]                                             
  H          -9.148679            -0.456298             5.047756            1             0.031932    [1[6[8][1][1]]]                                             
