12

  C           0.999467            -9.027304            -3.912011            0             0.099454    [6[8[1]][1][1][1]]                                          
  O           2.186414            -9.130388            -3.186209            0            -0.597823    [8[6[1][1][1]][1]]                                          
  H           2.083546            -9.885682            -2.567494            0             0.402573    [1[8[6]]]                                                   
  H           0.950091            -9.809537            -4.582821            0             0.031932    [1[6[8][1][1]]]                                             
  H           0.089306            -9.087572            -3.267712            0             0.031932    [1[6[8][1][1]]]                                             
  H           0.963477            -8.154280            -4.573107            0             0.031932    [1[6[8][1][1]]]                                             
  C           4.677394            -7.813026            -1.589694            1             0.099454    [6[8[1]][1][1][1]]                                          
  O           3.595846            -8.552365            -1.029796            1            -0.597823    [8[6[1][1][1]][1]]                                          
  H           3.218478            -7.925360            -0.473885            1             0.402573    [1[8[6]]]                                                   
  H           4.263604            -6.980245            -2.171745            1             0.031932    [1[6[8][1][1]]]                                             
  H           5.362882            -7.358812            -0.839855            1             0.031932    [1[6[8][1][1]]]                                             
  H           5.305498            -8.408023            -2.243893            1             0.031932    [1[6[8][1][1]]]                                             
