12

  C          -7.366661            -2.963687             2.761216            0             0.099454    [6[8[1]][1][1][1]]                                          
  O          -7.991004            -1.877299             2.184801            0            -0.597823    [8[6[1][1][1]][1]]                                          
  H          -8.630948            -1.490112             2.772157            0             0.402573    [1[8[6]]]                                                   
  H          -8.031490            -3.775481             2.924278            0             0.031932    [1[6[8][1][1]]]                                             
  H          -6.620792            -3.428823             2.136483            0             0.031932    [1[6[8][1][1]]]                                             
  H          -6.995310            -2.677469             3.725112            0             0.031932    [1[6[8][1][1]]]                                             
  C          -5.099899            -0.314163             2.273971            1             0.099454    [6[8[1]][1][1][1]]                                          
  O          -4.169031            -1.341223             2.297468            1            -0.597823    [8[6[1][1][1]][1]]                                          
  H          -3.967029            -1.630792             1.383608            1             0.402573    [1[8[6]]]                                                   
  H          -4.650917             0.664407             1.983989            1             0.031932    [1[6[8][1][1]]]                                             
  H          -5.904849            -0.446509             1.523370            1             0.031932    [1[6[8][1][1]]]                                             
  H          -5.640213            -0.184676             3.176502            1             0.031932    [1[6[8][1][1]]]                                             
