12

  C          -9.188982             2.734245            -3.089868            0             0.099454    [6[8[1]][1][1][1]]                                          
  O          -7.949023             2.911490            -3.748448            0            -0.597823    [8[6[1][1][1]][1]]                                          
  H          -7.436477             3.426553            -3.131312            0             0.402573    [1[8[6]]]                                                   
  H          -9.203550             1.752508            -2.653941            0             0.031932    [1[6[8][1][1]]]                                             
  H          -9.451400             3.492022            -2.322861            0             0.031932    [1[6[8][1][1]]]                                             
  H          -10.104893            2.853784            -3.707225            0             0.031932    [1[6[8][1][1]]]                                             
  C          -7.747924             0.916751            -6.210353            1             0.099454    [6[8[1]][1][1][1]]                                          
  O          -7.142208             2.156412            -6.233135            1            -0.597823    [8[6[1][1][1]][1]]                                          
  H          -7.503305             2.650458            -5.488223            1             0.402573    [1[8[6]]]                                                   
  H          -8.604690             0.952695            -5.520597            1             0.031932    [1[6[8][1][1]]]                                             
  H          -8.202398             0.750221            -7.196157            1             0.031932    [1[6[8][1][1]]]                                             
  H          -7.147462             0.065679            -6.021000            1             0.031932    [1[6[8][1][1]]]                                             
