12

  C           7.566947             5.501724            -7.688367            0             0.099454    [6[8[1]][1][1][1]]                                          
  O           8.871619             5.154170            -7.252014            0            -0.597823    [8[6[1][1][1]][1]]                                          
  H           9.390646             4.968212            -8.055029            0             0.402573    [1[8[6]]]                                                   
  H           7.136891             4.654805            -8.248062            0             0.031932    [1[6[8][1][1]]]                                             
  H           6.874358             5.827062            -6.924543            0             0.031932    [1[6[8][1][1]]]                                             
  H           7.614516             6.193306            -8.485146            0             0.031932    [1[6[8][1][1]]]                                             
  C           7.325331             2.009467            -5.670389            1             0.099454    [6[8[1]][1][1][1]]                                          
  O           8.123914             3.177363            -5.456329            1            -0.597823    [8[6[1][1][1]][1]]                                          
  H           8.504712             3.416685            -6.307594            1             0.402573    [1[8[6]]]                                                   
  H           7.783440             1.398973            -6.538827            1             0.031932    [1[6[8][1][1]]]                                             
  H           7.272963             1.471149            -4.685019            1             0.031932    [1[6[8][1][1]]]                                             
  H           6.357954             2.178051            -6.023412            1             0.031932    [1[6[8][1][1]]]                                             
