12

  C          -9.077613             5.057390             5.420772            0             0.099454    [6[8[1]][1][1][1]]                                          
  O          -8.869812             6.423419             5.681312            0            -0.597823    [8[6[1][1][1]][1]]                                          
  H          -9.673944             6.927638             5.424677            0             0.402573    [1[8[6]]]                                                   
  H          -9.769286             4.564212             6.147987            0             0.031932    [1[6[8][1][1]]]                                             
  H          -9.462591             4.906891             4.415890            0             0.031932    [1[6[8][1][1]]]                                             
  H          -8.125936             4.472946             5.431620            0             0.031932    [1[6[8][1][1]]]                                             
  C          -6.627658             7.081964             3.362169            1             0.099454    [6[8[1]][1][1][1]]                                          
  O          -5.285582             6.645281             3.332176            1            -0.597823    [8[6[1][1][1]][1]]                                          
  H          -5.029885             6.674027             2.389215            1             0.402573    [1[8[6]]]                                                   
  H          -7.282603             6.314999             2.972260            1             0.031932    [1[6[8][1][1]]]                                             
  H          -6.947798             7.487413             4.321601            1             0.031932    [1[6[8][1][1]]]                                             
  H          -6.790034             7.846642             2.565367            1             0.031932    [1[6[8][1][1]]]                                             
