12

  C           2.238468            -1.442492            -1.376394            0             0.099454    [6[8[1]][1][1][1]]                                          
  O           1.121689            -1.733540            -0.514272            0            -0.597823    [8[6[1][1][1]][1]]                                          
  H           1.431541            -2.499082            -0.058163            0             0.402573    [1[8[6]]]                                                   
  H           3.190386            -1.760322            -0.835746            0             0.031932    [1[6[8][1][1]]]                                             
  H           2.025457            -1.974779            -2.354060            0             0.031932    [1[6[8][1][1]]]                                             
  H           2.293692            -0.377440            -1.575006            0             0.031932    [1[6[8][1][1]]]                                             
  C           3.963747            -3.154217            -4.945973            1             0.099454    [6[8[1]][1][1][1]]                                          
  O           4.362584            -2.281395            -3.851655            1            -0.597823    [8[6[1][1][1]][1]]                                          
  H           4.077318            -1.452071            -4.213905            1             0.402573    [1[8[6]]]                                                   
  H           4.382273            -2.936864            -5.947264            1             0.031932    [1[6[8][1][1]]]                                             
  H           4.234366            -4.138114            -4.796596            1             0.031932    [1[6[8][1][1]]]                                             
  H           2.847343            -3.273839            -5.075239            1             0.031932    [1[6[8][1][1]]]                                             
