12

  C          -1.131126             6.943872             9.337002            0             0.099454    [6[8[1]][1][1][1]]                                          
  O          -1.336318             6.584339             7.948773            0            -0.597823    [8[6[1][1][1]][1]]                                          
  H          -2.032077             5.936859             7.854210            0             0.402573    [1[8[6]]]                                                   
  H          -2.051176             7.337864             9.696394            0             0.031932    [1[6[8][1][1]]]                                             
  H          -0.953307             6.030843             9.931406            0             0.031932    [1[6[8][1][1]]]                                             
  H          -0.297737             7.670743             9.423129            0             0.031932    [1[6[8][1][1]]]                                             
  C           1.536890             6.629011             5.519386            1             0.099454    [6[8[1]][1][1][1]]                                          
  O           0.725455             7.687187             5.987546            1            -0.597823    [8[6[1][1][1]][1]]                                          
  H           0.091693             7.294986             6.653605            1             0.402573    [1[8[6]]]                                                   
  H           1.917909             6.062887             6.367477            1             0.031932    [1[6[8][1][1]]]                                             
  H           0.971347             5.888742             4.873822            1             0.031932    [1[6[8][1][1]]]                                             
  H           2.438145             6.869504             4.946360            1             0.031932    [1[6[8][1][1]]]                                             
