12

  C          -2.561850             8.333009             5.793317            0             0.099454    [6[8[1]][1][1][1]]                                          
  O          -3.098374             7.684261             4.668960            0            -0.597823    [8[6[1][1][1]][1]]                                          
  H          -2.260752             7.229011             4.369283            0             0.402573    [1[8[6]]]                                                   
  H          -1.504505             8.534680             5.701477            0             0.031932    [1[6[8][1][1]]]                                             
  H          -3.050513             9.317847             5.958538            0             0.031932    [1[6[8][1][1]]]                                             
  H          -2.651462             7.682936             6.685952            0             0.031932    [1[6[8][1][1]]]                                             
  C          -3.713729             2.994849             5.056679            1             0.099454    [6[8[1]][1][1][1]]                                          
  O          -3.465774             3.785034             3.908871            1            -0.597823    [8[6[1][1][1]][1]]                                          
  H          -3.930081             3.413246             3.108385            1             0.402573    [1[8[6]]]                                                   
  H          -4.720237             2.668428             5.182172            1             0.031932    [1[6[8][1][1]]]                                             
  H          -3.189832             2.010708             5.015684            1             0.031932    [1[6[8][1][1]]]                                             
  H          -3.394363             3.545532             5.974320            1             0.031932    [1[6[8][1][1]]]                                             
