12

  C          -5.865951             8.801182             9.237158            0             0.099454    [6[8[1]][1][1][1]]                                          
  O          -4.504364             9.024511             9.438902            0            -0.597823    [8[6[1][1][1]][1]]                                          
  H          -4.386974             8.905559             10.395434           0             0.402573    [1[8[6]]]                                                   
  H          -6.114894             8.254094             8.307403            0             0.031932    [1[6[8][1][1]]]                                             
  H          -6.434138             8.201952             9.981236            0             0.031932    [1[6[8][1][1]]]                                             
  H          -6.459091             9.717621             9.220402            0             0.031932    [1[6[8][1][1]]]                                             
  C          -1.290299             8.433248             8.669022            1             0.099454    [6[8[1]][1][1][1]]                                          
  O          -1.568761             7.924219             9.948612            1            -0.597823    [8[6[1][1][1]][1]]                                          
  H          -1.060228             8.309099             10.647641           1             0.402573    [1[8[6]]]                                                   
  H          -1.568167             9.504635             8.514932            1             0.031932    [1[6[8][1][1]]]                                             
  H          -0.198766             8.334005             8.519396            1             0.031932    [1[6[8][1][1]]]                                             
  H          -1.691228             7.854699             7.915342            1             0.031932    [1[6[8][1][1]]]                                             
