12

  C           3.181583             10.824812            2.357139            0             0.099454    [6[8[1]][1][1][1]]                                          
  O           3.352786             9.447297             2.312862            0            -0.597823    [8[6[1][1][1]][1]]                                          
  H           3.442495             9.190709             3.246657            0             0.402573    [1[8[6]]]                                                   
  H           3.205216             11.214386            1.317607            0             0.031932    [1[6[8][1][1]]]                                             
  H           2.145483             11.195536            2.772562            0             0.031932    [1[6[8][1][1]]]                                             
  H           4.087869             11.332881            2.814354            0             0.031932    [1[6[8][1][1]]]                                             
  C           6.278651             9.131592             0.310008            1             0.099454    [6[8[1]][1][1][1]]                                          
  O           4.981540             8.722451            -0.021591            1            -0.597823    [8[6[1][1][1]][1]]                                          
  H           4.399282             9.081503             0.703388            1             0.402573    [1[8[6]]]                                                   
  H           6.369270             9.393353             1.328500            1             0.031932    [1[6[8][1][1]]]                                             
  H           7.022365             8.378398             0.114698            1             0.031932    [1[6[8][1][1]]]                                             
  H           6.562119             10.081628           -0.112263            1             0.031932    [1[6[8][1][1]]]                                             
