12

  C           6.775463            -7.856936             9.793855            0             0.099454    [6[8[1]][1][1][1]]                                          
  O           7.177662            -6.719258             9.004089            0            -0.597823    [8[6[1][1][1]][1]]                                          
  H           7.616840            -7.100474             8.215127            0             0.402573    [1[8[6]]]                                                   
  H           7.631178            -8.159640             10.426616           0             0.031932    [1[6[8][1][1]]]                                             
  H           5.800741            -7.666775             10.458928           0             0.031932    [1[6[8][1][1]]]                                             
  H           6.628970            -8.660253             9.101979            0             0.031932    [1[6[8][1][1]]]                                             
  C           4.172070            -4.404791             9.266475            1             0.099454    [6[8[1]][1][1][1]]                                          
  O           4.568291            -5.770132             9.094948            1            -0.597823    [8[6[1][1][1]][1]]                                          
  H           5.481680            -5.952398             9.237084            1             0.402573    [1[8[6]]]                                                   
  H           3.093478            -4.262770             9.240783            1             0.031932    [1[6[8][1][1]]]                                             
  H           4.577018            -4.151827             10.280328           1             0.031932    [1[6[8][1][1]]]                                             
  H           4.635899            -3.712360             8.532662            1             0.031932    [1[6[8][1][1]]]                                             
