12

  C           4.682052            -4.285258             7.565120            0             0.099454    [6[8[1]][1][1][1]]                                          
  O           4.866444            -3.775011             6.253769            0            -0.597823    [8[6[1][1][1]][1]]                                          
  H           4.430609            -2.921144             6.243393            0             0.402573    [1[8[6]]]                                                   
  H           4.396078            -3.482571             8.277853            0             0.031932    [1[6[8][1][1]]]                                             
  H           3.896837            -5.017560             7.602140            0             0.031932    [1[6[8][1][1]]]                                             
  H           5.548066            -4.676643             7.981622            0             0.031932    [1[6[8][1][1]]]                                             
  C           2.782346            -7.242801             9.263884            1             0.099454    [6[8[1]][1][1][1]]                                          
  O           1.547861            -7.287744             9.985859            1            -0.597823    [8[6[1][1][1]][1]]                                          
  H           1.307894            -8.208495             9.985656            1             0.402573    [1[8[6]]]                                                   
  H           3.617748            -7.679900             9.859829            1             0.031932    [1[6[8][1][1]]]                                             
  H           2.737972            -7.805422             8.302602            1             0.031932    [1[6[8][1][1]]]                                             
  H           3.019840            -6.236979             8.907746            1             0.031932    [1[6[8][1][1]]]                                             
