12

  C           2.446534            -0.957080             0.953767            0             0.099454    [6[8[1]][1][1][1]]                                          
  O           2.263740             0.339248             0.481250            0            -0.597823    [8[6[1][1][1]][1]]                                          
  H           1.355955             0.315129             0.097831            0             0.402573    [1[8[6]]]                                                   
  H           3.538243            -1.159601             1.151109            0             0.031932    [1[6[8][1][1]]]                                             
  H           1.993574            -1.125897             1.934658            0             0.031932    [1[6[8][1][1]]]                                             
  H           2.053428            -1.697646             0.202763            0             0.031932    [1[6[8][1][1]]]                                             
  C           0.546155            -0.386009            -2.246830            1             0.099454    [6[8[1]][1][1][1]]                                          
  O          -0.111670            -0.141035            -1.018801            1            -0.597823    [8[6[1][1][1]][1]]                                          
  H          -0.654529             0.653653            -1.151172            1             0.402573    [1[8[6]]]                                                   
  H           1.184324             0.479456            -2.585590            1             0.031932    [1[6[8][1][1]]]                                             
  H           1.090515            -1.314380            -2.225483            1             0.031932    [1[6[8][1][1]]]                                             
  H          -0.141371            -0.503635            -3.086953            1             0.031932    [1[6[8][1][1]]]                                             
