12

  C          -9.641267            -10.587054           -4.883074            0             0.099454    [6[8[1]][1][1][1]]                                          
  O          -10.046875           -9.231081            -4.820711            0            -0.597823    [8[6[1][1][1]][1]]                                          
  H          -9.689397            -8.879849            -3.973131            0             0.402573    [1[8[6]]]                                                   
  H          -8.741883            -10.630906           -4.172848            0             0.031932    [1[6[8][1][1]]]                                             
  H          -10.446218           -11.238485           -4.547524            0             0.031932    [1[6[8][1][1]]]                                             
  H          -9.391524            -10.963067           -5.903366            0             0.031932    [1[6[8][1][1]]]                                             
  C          -8.340799            -7.463451            -1.825485            1             0.099454    [6[8[1]][1][1][1]]                                          
  O          -9.547389            -8.055020            -2.254441            1            -0.597823    [8[6[1][1][1]][1]]                                          
  H          -10.238468           -7.410873            -1.993551            1             0.402573    [1[8[6]]]                                                   
  H          -7.498366            -7.871612            -2.381904            1             0.031932    [1[6[8][1][1]]]                                             
  H          -8.376647            -6.319870            -1.937428            1             0.031932    [1[6[8][1][1]]]                                             
  H          -8.097483            -7.847441            -0.828746            1             0.031932    [1[6[8][1][1]]]                                             
