12

  C           2.722578             4.133135            -4.885620            0             0.099454    [6[8[1]][1][1][1]]                                          
  O           4.120572             4.134643            -4.407210            0            -0.597823    [8[6[1][1][1]][1]]                                          
  H           4.093610             4.370129            -3.497614            0             0.402573    [1[8[6]]]                                                   
  H           2.658445             4.004755            -5.980850            0             0.031932    [1[6[8][1][1]]]                                             
  H           2.083581             3.392493            -4.388767            0             0.031932    [1[6[8][1][1]]]                                             
  H           2.263852             5.133771            -4.764851            0             0.031932    [1[6[8][1][1]]]                                             
  C           1.018940             6.694985            -1.032136            1             0.099454    [6[8[1]][1][1][1]]                                          
  O           2.230174             6.372593            -0.305373            1            -0.597823    [8[6[1][1][1]][1]]                                          
  H           2.404146             5.410996            -0.444812            1             0.402573    [1[8[6]]]                                                   
  H           0.998442             7.759421            -1.303204            1             0.031932    [1[6[8][1][1]]]                                             
  H           1.070386             6.146931            -2.024044            1             0.031932    [1[6[8][1][1]]]                                             
  H           0.123242             6.356830            -0.452372            1             0.031932    [1[6[8][1][1]]]                                             
