12

  C           9.200212            -0.043180            -9.565434            0             0.099454    [6[8[1]][1][1][1]]                                          
  O           9.554774            -1.096549            -10.437954           0            -0.597823    [8[6[1][1][1]][1]]                                          
  H           8.810074            -1.397216            -10.963282           0             0.402573    [1[8[6]]]                                                   
  H           8.999381             0.938435            -10.111305           0             0.031932    [1[6[8][1][1]]]                                             
  H           8.186143            -0.271036            -9.063142            0             0.031932    [1[6[8][1][1]]]                                             
  H           9.978247             0.232531            -8.802907            0             0.031932    [1[6[8][1][1]]]                                             
  C           9.157100             2.402811            -6.691442            1             0.099454    [6[8[1]][1][1][1]]                                          
  O           9.237402             1.357602            -5.794396            1            -0.597823    [8[6[1][1][1]][1]]                                          
  H           9.548221             1.587580            -4.903882            1             0.402573    [1[8[6]]]                                                   
  H           8.754190             3.291176            -6.171335            1             0.031932    [1[6[8][1][1]]]                                             
  H           10.147818            2.677296            -7.054864            1             0.031932    [1[6[8][1][1]]]                                             
  H           8.529204             2.090750            -7.562426            1             0.031932    [1[6[8][1][1]]]                                             
