12

  C          -8.023118             5.970073            -7.301579            0             0.099454    [6[8[1]][1][1][1]]                                          
  O          -7.208899             5.748031            -6.199433            0            -0.597823    [8[6[1][1][1]][1]]                                          
  H          -7.582233             5.100643            -5.540227            0             0.402573    [1[8[6]]]                                                   
  H          -8.491772             6.984259            -7.204203            0             0.031932    [1[6[8][1][1]]]                                             
  H          -7.494694             5.832346            -8.256467            0             0.031932    [1[6[8][1][1]]]                                             
  H          -8.841849             5.215604            -7.301558            0             0.031932    [1[6[8][1][1]]]                                             
  C          -7.605909             2.443021            -5.622041            1             0.099454    [6[8[1]][1][1][1]]                                          
  O          -8.394434             3.474753            -5.066151            1            -0.597823    [8[6[1][1][1]][1]]                                          
  H          -8.746984             3.268596            -4.163043            1             0.402573    [1[8[6]]]                                                   
  H          -6.908455             2.024404            -4.832031            1             0.031932    [1[6[8][1][1]]]                                             
  H          -8.242513             1.688588            -6.000919            1             0.031932    [1[6[8][1][1]]]                                             
  H          -7.027775             2.828739            -6.512241            1             0.031932    [1[6[8][1][1]]]                                             
