12

  C          -2.210150             4.309729             2.179350            0             0.099454    [6[8[1]][1][1][1]]                                          
  O          -2.099163             3.474252             3.360581            0            -0.597823    [8[6[1][1][1]][1]]                                          
  H          -2.770289             2.741984             3.380769            0             0.402573    [1[8[6]]]                                                   
  H          -1.626261             3.910436             1.350685            0             0.031932    [1[6[8][1][1]]]                                             
  H          -3.312350             4.480102             1.869655            0             0.031932    [1[6[8][1][1]]]                                             
  H          -1.674488             5.251024             2.293240            0             0.031932    [1[6[8][1][1]]]                                             
  C          -4.309679             0.139881             3.274753            1             0.099454    [6[8[1]][1][1][1]]                                          
  O          -3.997063             1.453591             2.977763            1            -0.597823    [8[6[1][1][1]][1]]                                          
  H          -4.850942             1.963425             2.857807            1             0.402573    [1[8[6]]]                                                   
  H          -4.736021            -0.485051             2.500253            1             0.031932    [1[6[8][1][1]]]                                             
  H          -3.409156            -0.389718             3.671393            1             0.031932    [1[6[8][1][1]]]                                             
  H          -5.119480             0.125753             4.057112            1             0.031932    [1[6[8][1][1]]]                                             
