12

  C          -6.210408             7.186349            -6.347533            0             0.099454    [6[8[1]][1][1][1]]                                          
  O          -6.337280             8.254765            -7.246706            0            -0.597823    [8[6[1][1][1]][1]]                                          
  H          -6.561061             7.790520            -8.089679            0             0.402573    [1[8[6]]]                                                   
  H          -6.987174             6.395478            -6.449828            0             0.031932    [1[6[8][1][1]]]                                             
  H          -5.291814             6.642553            -6.432559            0             0.031932    [1[6[8][1][1]]]                                             
  H          -6.203094             7.509204            -5.298534            0             0.031932    [1[6[8][1][1]]]                                             
  C          -8.142469             10.884034           -8.858114            1             0.099454    [6[8[1]][1][1][1]]                                          
  O          -7.232965             11.107994           -7.759848            1            -0.597823    [8[6[1][1][1]][1]]                                          
  H          -6.892286             10.269751           -7.515333            1             0.402573    [1[8[6]]]                                                   
  H          -9.143728             11.358740           -8.624990            1             0.031932    [1[6[8][1][1]]]                                             
  H          -7.690766             11.232019           -9.853560            1             0.031932    [1[6[8][1][1]]]                                             
  H          -8.381424             9.827021            -9.023874            1             0.031932    [1[6[8][1][1]]]                                             
