12

  C          -6.106169            -7.139025             5.478536            0             0.099454    [6[8[1]][1][1][1]]                                          
  O          -7.250673            -6.358448             5.904261            0            -0.597823    [8[6[1][1][1]][1]]                                          
  H          -7.580413            -5.854131             5.158850            0             0.402573    [1[8[6]]]                                                   
  H          -5.225424            -6.537199             5.228452            0             0.031932    [1[6[8][1][1]]]                                             
  H          -5.853161            -7.888103             6.266709            0             0.031932    [1[6[8][1][1]]]                                             
  H          -6.381485            -7.683977             4.536477            0             0.031932    [1[6[8][1][1]]]                                             
  C          -10.150982           -6.172238             9.585934            1             0.099454    [6[8[1]][1][1][1]]                                          
  O          -9.228055            -7.141119             9.989197            1            -0.597823    [8[6[1][1][1]][1]]                                          
  H          -9.704365            -7.871113             10.389564           1             0.402573    [1[8[6]]]                                                   
  H          -9.798425            -5.525775             8.758411            1             0.031932    [1[6[8][1][1]]]                                             
  H          -11.006873           -6.741988             9.200142            1             0.031932    [1[6[8][1][1]]]                                             
  H          -10.556566           -5.575769             10.407005           1             0.031932    [1[6[8][1][1]]]                                             
