12

  C           7.094991            -5.874388             4.295036            0             0.099454    [6[8[1]][1][1][1]]                                          
  O           6.607568            -5.115187             5.413430            0            -0.597823    [8[6[1][1][1]][1]]                                          
  H           6.014298            -4.411971             5.145993            0             0.402573    [1[8[6]]]                                                   
  H           6.600203            -5.667700             3.315345            0             0.031932    [1[6[8][1][1]]]                                             
  H           8.165961            -5.827261             4.147364            0             0.031932    [1[6[8][1][1]]]                                             
  H           6.868536            -6.907309             4.499651            0             0.031932    [1[6[8][1][1]]]                                             
  C           9.741924            -3.352049             1.536750            1             0.099454    [6[8[1]][1][1][1]]                                          
  O           9.436478            -2.727637             2.823499            1            -0.597823    [8[6[1][1][1]][1]]                                          
  H           8.636189            -2.138844             2.743913            1             0.402573    [1[8[6]]]                                                   
  H           10.170041           -4.362015             1.642687            1             0.031932    [1[6[8][1][1]]]                                             
  H           8.852915            -3.598148             0.882711            1             0.031932    [1[6[8][1][1]]]                                             
  H           10.507776           -2.851678             0.903736            1             0.031932    [1[6[8][1][1]]]                                             
