12

  C          -0.754698            -4.429643             3.939378            0             0.099454    [6[8[1]][1][1][1]]                                          
  O          -1.196798            -4.428082             5.254249            0            -0.597823    [8[6[1][1][1]][1]]                                          
  H          -0.395699            -4.752719             5.779728            0             0.402573    [1[8[6]]]                                                   
  H          -0.383757            -5.340087             3.635676            0             0.031932    [1[6[8][1][1]]]                                             
  H          -1.507620            -4.118996             3.190048            0             0.031932    [1[6[8][1][1]]]                                             
  H           0.031200            -3.762485             3.769299            0             0.031932    [1[6[8][1][1]]]                                             
  C          -3.152113            -1.685180             5.511687            1             0.099454    [6[8[1]][1][1][1]]                                          
  O          -3.578452            -2.644021             4.578806            1            -0.597823    [8[6[1][1][1]][1]]                                          
  H          -2.831220            -3.224825             4.420491            1             0.402573    [1[8[6]]]                                                   
  H          -2.231712            -1.127083             5.128433            1             0.031932    [1[6[8][1][1]]]                                             
  H          -3.887088            -1.022022             5.889255            1             0.031932    [1[6[8][1][1]]]                                             
  H          -2.718246            -2.180419             6.352590            1             0.031932    [1[6[8][1][1]]]                                             
