12

  C          -9.910332            -1.444865             6.681377            0             0.099454    [6[8[1]][1][1][1]]                                          
  O          -8.594593            -1.476581             6.114144            0            -0.597823    [8[6[1][1][1]][1]]                                          
  H          -8.607450            -1.391479             5.132857            0             0.402573    [1[8[6]]]                                                   
  H          -10.341876           -0.439712             6.581889            0             0.031932    [1[6[8][1][1]]]                                             
  H          -10.615634           -2.049773             6.122155            0             0.031932    [1[6[8][1][1]]]                                             
  H          -9.973743            -1.727062             7.796625            0             0.031932    [1[6[8][1][1]]]                                             
  C          -7.990486            -4.213735             7.700667            1             0.099454    [6[8[1]][1][1][1]]                                          
  O          -7.204821            -4.225652             8.851542            1            -0.597823    [8[6[1][1][1]][1]]                                          
  H          -6.352141            -3.844062             8.557284            1             0.402573    [1[8[6]]]                                                   
  H          -8.004291            -5.220981             7.216581            1             0.031932    [1[6[8][1][1]]]                                             
  H          -9.041679            -4.169610             8.056314            1             0.031932    [1[6[8][1][1]]]                                             
  H          -7.718613            -3.386395             6.999404            1             0.031932    [1[6[8][1][1]]]                                             
