12

  C          -7.106117            -0.711953            -4.295349            0             0.099454    [6[8[1]][1][1][1]]                                          
  O          -7.987258            -0.969623            -5.345620            0            -0.597823    [8[6[1][1][1]][1]]                                          
  H          -8.785335            -0.606331            -5.012032            0             0.402573    [1[8[6]]]                                                   
  H          -6.036073            -1.036936            -4.411769            0             0.031932    [1[6[8][1][1]]]                                             
  H          -7.037151             0.351110            -4.185939            0             0.031932    [1[6[8][1][1]]]                                             
  H          -7.469075            -1.155235            -3.374603            0             0.031932    [1[6[8][1][1]]]                                             
  C          -5.962067             2.058000            -6.727734            1             0.099454    [6[8[1]][1][1][1]]                                          
  O          -6.074522             0.724130            -7.258330            1            -0.597823    [8[6[1][1][1]][1]]                                          
  H          -6.830663             0.692795            -7.852670            1             0.402573    [1[8[6]]]                                                   
  H          -5.898301             2.758126            -7.603611            1             0.031932    [1[6[8][1][1]]]                                             
  H          -6.811730             2.365219            -6.074757            1             0.031932    [1[6[8][1][1]]]                                             
  H          -4.984122             2.110984            -6.236321            1             0.031932    [1[6[8][1][1]]]                                             
