12

  C          -6.197209            -10.043977           -7.076087            0             0.099454    [6[8[1]][1][1][1]]                                          
  O          -7.192169            -9.113181            -7.459103            0            -0.597823    [8[6[1][1][1]][1]]                                          
  H          -7.983588            -9.380507            -7.088494            0             0.402573    [1[8[6]]]                                                   
  H          -6.571320            -11.022002           -7.330227            0             0.031932    [1[6[8][1][1]]]                                             
  H          -5.260879            -9.809619            -7.601295            0             0.031932    [1[6[8][1][1]]]                                             
  H          -5.787484            -10.013825           -6.086584            0             0.031932    [1[6[8][1][1]]]                                             
  C          -10.292282           -10.298115           -7.803485            1             0.099454    [6[8[1]][1][1][1]]                                          
  O          -9.893971            -9.092329            -7.274887            1            -0.597823    [8[6[1][1][1]][1]]                                          
  H          -10.588177           -8.420497            -7.344512            1             0.402573    [1[8[6]]]                                                   
  H          -10.948231           -10.860862           -7.085478            1             0.031932    [1[6[8][1][1]]]                                             
  H          -10.845330           -10.100252           -8.775210            1             0.031932    [1[6[8][1][1]]]                                             
  H          -9.436841            -10.959219           -8.103490            1             0.031932    [1[6[8][1][1]]]                                             
