6

  C           2.534369            -11.574455            6.413434            0             0.089063    [6[8[1]][1][1][1]]                                          
  O           3.218862            -11.865611            7.607966            0            -0.604789    [8[6[1][1][1]][1]]                                          
  H           2.618041            -12.231765            8.221267            0             0.406250    [1[8[6]]]                                                   
  H           1.485938            -11.368769            6.529485            0             0.036492    [1[6[8][1][1]]]                                             
  H           2.964330            -10.622359            6.062527            0             0.036492    [1[6[8][1][1]]]                                             
  H           2.598938            -12.301785            5.619829            0             0.036492    [1[6[8][1][1]]]                                             
