12

  C          -2.949935             9.302881             7.250377            0             0.099454    [6[8[1]][1][1][1]]                                          
  O          -3.854951             8.679741             8.209806            0            -0.597823    [8[6[1][1][1]][1]]                                          
  H          -3.999120             7.738122             7.973193            0             0.402573    [1[8[6]]]                                                   
  H          -1.951529             9.062261             7.474002            0             0.031932    [1[6[8][1][1]]]                                             
  H          -3.203255             8.897659             6.218874            0             0.031932    [1[6[8][1][1]]]                                             
  H          -2.932842             10.382185            7.384572            0             0.031932    [1[6[8][1][1]]]                                             
  C          -4.439583             5.284049             6.460720            1             0.099454    [6[8[1]][1][1][1]]                                          
  O          -3.532584             5.940513             7.279064            1            -0.597823    [8[6[1][1][1]][1]]                                          
  H          -2.829601             5.355491             7.431559            1             0.402573    [1[8[6]]]                                                   
  H          -5.279890             4.732551             6.970226            1             0.031932    [1[6[8][1][1]]]                                             
  H          -4.912317             5.976185             5.736336            1             0.031932    [1[6[8][1][1]]]                                             
  H          -3.816924             4.488641             5.983282            1             0.031932    [1[6[8][1][1]]]                                             
