12

  C           8.138163             2.013779             8.440012            0             0.099454    [6[8[1]][1][1][1]]                                          
  O           8.449880             2.296050             7.073773            0            -0.597823    [8[6[1][1][1]][1]]                                          
  H           8.958610             1.573154             6.754095            0             0.402573    [1[8[6]]]                                                   
  H           7.680784             2.922407             8.860548            0             0.031932    [1[6[8][1][1]]]                                             
  H           7.458505             1.109173             8.484702            0             0.031932    [1[6[8][1][1]]]                                             
  H           9.035666             1.771950             8.988343            0             0.031932    [1[6[8][1][1]]]                                             
  C           7.470692             6.028601             6.508345            1             0.099454    [6[8[1]][1][1][1]]                                          
  O           7.339370             6.917307             7.588808            1            -0.597823    [8[6[1][1][1]][1]]                                          
  H           7.231223             7.717244             7.138052            1             0.402573    [1[8[6]]]                                                   
  H           7.922001             5.088984             6.804653            1             0.031932    [1[6[8][1][1]]]                                             
  H           6.594084             5.881988             5.978503            1             0.031932    [1[6[8][1][1]]]                                             
  H           8.218591             6.480001             5.812974            1             0.031932    [1[6[8][1][1]]]                                             
