12

  C           5.827610            -0.575672             1.401418            0             0.099454    [6[8[1]][1][1][1]]                                          
  O           5.249288             0.667074             1.196512            0            -0.597823    [8[6[1][1][1]][1]]                                          
  H           5.412422             1.050128             0.323895            0             0.402573    [1[8[6]]]                                                   
  H           6.908473            -0.683556             1.197600            0             0.031932    [1[6[8][1][1]]]                                             
  H           5.887313            -0.921262             2.416581            0             0.031932    [1[6[8][1][1]]]                                             
  H           5.287027            -1.259163             0.748697            0             0.031932    [1[6[8][1][1]]]                                             
  C           5.414360             2.312318            -2.568402            1             0.099454    [6[8[1]][1][1][1]]                                          
  O           4.625519             1.914450            -1.504518            1            -0.597823    [8[6[1][1][1]][1]]                                          
  H           3.851987             1.466490            -1.876465            1             0.402573    [1[8[6]]]                                                   
  H           4.913684             2.890442            -3.305051            1             0.031932    [1[6[8][1][1]]]                                             
  H           6.162484             2.892581            -2.213522            1             0.031932    [1[6[8][1][1]]]                                             
  H           5.852648             1.497806            -3.120697            1             0.031932    [1[6[8][1][1]]]                                             
