12

  C           3.964316             3.347006             8.560207            0             0.099454    [6[8[1]][1][1][1]]                                          
  O           2.798326             3.703831             7.869844            0            -0.597823    [8[6[1][1][1]][1]]                                          
  H           2.181258             4.153824             8.473695            0             0.402573    [1[8[6]]]                                                   
  H           4.313658             4.116674             9.230770            0             0.031932    [1[6[8][1][1]]]                                             
  H           3.796506             2.467997             9.113621            0             0.031932    [1[6[8][1][1]]]                                             
  H           4.797698             3.092619             7.910218            0             0.031932    [1[6[8][1][1]]]                                             
  C           0.515083             7.096819             8.367993            1             0.099454    [6[8[1]][1][1][1]]                                          
  O           0.931852             6.012301             9.173151            1            -0.597823    [8[6[1][1][1]][1]]                                          
  H           1.008933             6.276622             10.084968           1             0.402573    [1[8[6]]]                                                   
  H           0.138819             7.924819             8.940735            1             0.031932    [1[6[8][1][1]]]                                             
  H           1.286095             7.467547             7.725696            1             0.031932    [1[6[8][1][1]]]                                             
  H          -0.189423             6.788194             7.637809            1             0.031932    [1[6[8][1][1]]]                                             
