12

  C          -3.485730            -1.394707            -9.730617            0             0.099454    [6[8[1]][1][1][1]]                                          
  O          -2.209008            -1.200329            -10.263792           0            -0.597823    [8[6[1][1][1]][1]]                                          
  H          -1.614533            -1.875366            -9.926658            0             0.402573    [1[8[6]]]                                                   
  H          -4.240539            -0.844386            -10.235814           0             0.031932    [1[6[8][1][1]]]                                             
  H          -3.804167            -2.419185            -9.794614            0             0.031932    [1[6[8][1][1]]]                                             
  H          -3.535408            -1.094552            -8.687688            0             0.031932    [1[6[8][1][1]]]                                             
  C          -0.934420            -1.501478            -4.577652            1             0.099454    [6[8[1]][1][1][1]]                                          
  O          -1.421709            -2.465679            -3.642206            1            -0.597823    [8[6[1][1][1]][1]]                                          
  H          -0.741423            -3.108189            -3.495462            1             0.402573    [1[8[6]]]                                                   
  H          -0.216309            -0.881202            -4.057632            1             0.031932    [1[6[8][1][1]]]                                             
  H          -0.440611            -1.899452            -5.463402            1             0.031932    [1[6[8][1][1]]]                                             
  H          -1.623490            -0.727408            -4.985823            1             0.031932    [1[6[8][1][1]]]                                             
