12

  C          -9.226378             6.819918             10.298666           0             0.099454    [6[8[1]][1][1][1]]                                          
  O          -9.148091             8.189575             10.728169           0            -0.597823    [8[6[1][1][1]][1]]                                          
  H          -8.323087             8.375170             11.172389           0             0.402573    [1[8[6]]]                                                   
  H          -9.134527             6.692401             9.233474            0             0.031932    [1[6[8][1][1]]]                                             
  H          -8.394565             6.254475             10.685698           0             0.031932    [1[6[8][1][1]]]                                             
  H          -10.206823            6.394376             10.486377           0             0.031932    [1[6[8][1][1]]]                                             
  C          -6.088060             11.243761            10.245405           1             0.099454    [6[8[1]][1][1][1]]                                          
  O          -4.953710             11.201807            11.142283           1            -0.597823    [8[6[1][1][1]][1]]                                          
  H          -4.215034             10.979532            10.575141           1             0.402573    [1[8[6]]]                                                   
  H          -6.122248             12.074318            9.524316            1             0.031932    [1[6[8][1][1]]]                                             
  H          -6.166013             10.306812            9.666367            1             0.031932    [1[6[8][1][1]]]                                             
  H          -6.992842             11.348077            10.940756           1             0.031932    [1[6[8][1][1]]]                                             
