12

  C          -2.881200             5.269052             1.066537            0             0.099454    [6[8[1]][1][1][1]]                                          
  O          -2.445104             4.075524             0.341486            0            -0.597823    [8[6[1][1][1]][1]]                                          
  H          -2.756895             4.205874            -0.534556            0             0.402573    [1[8[6]]]                                                   
  H          -3.832270             5.165989             1.402556            0             0.031932    [1[6[8][1][1]]]                                             
  H          -2.191036             5.618454             1.900053            0             0.031932    [1[6[8][1][1]]]                                             
  H          -2.957396             6.094008             0.292697            0             0.031932    [1[6[8][1][1]]]                                             
  C          -3.789158             7.906341            -2.669329            1             0.099454    [6[8[1]][1][1][1]]                                          
  O          -4.091139             7.734431            -4.022103            1            -0.597823    [8[6[1][1][1]][1]]                                          
  H          -3.333544             7.539611            -4.474038            1             0.402573    [1[8[6]]]                                                   
  H          -4.517442             8.488544            -2.173604            1             0.031932    [1[6[8][1][1]]]                                             
  H          -3.769773             6.916868            -2.177394            1             0.031932    [1[6[8][1][1]]]                                             
  H          -2.835355             8.451827            -2.529979            1             0.031932    [1[6[8][1][1]]]                                             
