6

  C          -9.791303            -10.099411            9.310983            0             0.089063    [6[8[1]][1][1][1]]                                          
  O          -9.002937            -10.753431            10.296551           0            -0.604789    [8[6[1][1][1]][1]]                                          
  H          -9.538551            -10.874816            11.117157           0             0.406250    [1[8[6]]]                                                   
  H          -9.195692            -10.205011            8.417178            0             0.036492    [1[6[8][1][1]]]                                             
  H          -10.803810           -10.464244            9.140756            0             0.036492    [1[6[8][1][1]]]                                             
  H          -9.751564            -9.028167             9.612404            0             0.036492    [1[6[8][1][1]]]                                             
