12

  C          -8.068520             9.350120             1.189583            0             0.099454    [6[8[1]][1][1][1]]                                          
  O          -8.752625             10.376869            1.873308            0            -0.597823    [8[6[1][1][1]][1]]                                          
  H          -8.135761             11.181691            1.909176            0             0.402573    [1[8[6]]]                                                   
  H          -6.977706             9.408543             1.361703            0             0.031932    [1[6[8][1][1]]]                                             
  H          -8.315950             8.386054             1.585649            0             0.031932    [1[6[8][1][1]]]                                             
  H          -8.351789             9.399995             0.160666            0             0.031932    [1[6[8][1][1]]]                                             
  C          -9.041128             7.108343             4.678222            1             0.099454    [6[8[1]][1][1][1]]                                          
  O          -8.063156             7.959100             5.297418            1            -0.597823    [8[6[1][1][1]][1]]                                          
  H          -8.602774             8.629575             5.673982            1             0.402573    [1[8[6]]]                                                   
  H          -8.511217             6.497852             4.034014            1             0.031932    [1[6[8][1][1]]]                                             
  H          -9.565376             6.519665             5.399782            1             0.031932    [1[6[8][1][1]]]                                             
  H          -9.755183             7.740047             4.094476            1             0.031932    [1[6[8][1][1]]]                                             
