12

  C          -0.575067            -10.156360            7.923037            0             0.099454    [6[8[1]][1][1][1]]                                          
  O           0.034573            -8.867391             8.103202            0            -0.597823    [8[6[1][1][1]][1]]                                          
  H           0.063083            -8.534555             7.191090            0             0.402573    [1[8[6]]]                                                   
  H          -0.260916            -10.777409            8.756213            0             0.031932    [1[6[8][1][1]]]                                             
  H          -1.647497            -10.080484            7.981376            0             0.031932    [1[6[8][1][1]]]                                             
  H          -0.388357            -10.646817            7.019382            0             0.031932    [1[6[8][1][1]]]                                             
  C          -0.689859            -6.045129             10.141040           1             0.099454    [6[8[1]][1][1][1]]                                          
  O          -1.623886            -6.700733             9.380281            1            -0.597823    [8[6[1][1][1]][1]]                                          
  H          -1.112781            -7.355313             8.860090            1             0.402573    [1[8[6]]]                                                   
  H           0.213045            -6.562357             10.054029           1             0.031932    [1[6[8][1][1]]]                                             
  H          -0.605332            -4.968874             9.947013            1             0.031932    [1[6[8][1][1]]]                                             
  H          -0.933497            -6.123105             11.212937           1             0.031932    [1[6[8][1][1]]]                                             
