12

  C          -9.804069             7.900826             8.547474            0             0.099454    [6[8[1]][1][1][1]]                                          
  O          -9.071154             7.709983             9.761684            0            -0.597823    [8[6[1][1][1]][1]]                                          
  H          -8.392500             7.044270             9.630347            0             0.402573    [1[8[6]]]                                                   
  H          -10.682411            8.493206             8.766984            0             0.031932    [1[6[8][1][1]]]                                             
  H          -9.235418             8.590576             7.867122            0             0.031932    [1[6[8][1][1]]]                                             
  H          -10.142781            7.030390             7.977538            0             0.031932    [1[6[8][1][1]]]                                             
  C          -5.684015             9.857647             7.449230            1             0.099454    [6[8[1]][1][1][1]]                                          
  O          -6.721739             10.733830            7.907810            1            -0.597823    [8[6[1][1][1]][1]]                                          
  H          -7.462651             10.156869            8.055828            1             0.402573    [1[8[6]]]                                                   
  H          -4.800477             10.472967            7.176376            1             0.031932    [1[6[8][1][1]]]                                             
  H          -5.382355             9.220520             8.260424            1             0.031932    [1[6[8][1][1]]]                                             
  H          -5.806850             9.106552             6.643871            1             0.031932    [1[6[8][1][1]]]                                             
