12

  C           5.267570            -1.081642             8.103618            0             0.099454    [6[8[1]][1][1][1]]                                          
  O           4.867190            -2.109481             8.947615            0            -0.597823    [8[6[1][1][1]][1]]                                          
  H           3.963623            -1.847875             9.170114            0             0.402573    [1[8[6]]]                                                   
  H           5.623439            -0.273538             8.761835            0             0.031932    [1[6[8][1][1]]]                                             
  H           6.051549            -1.305107             7.366669            0             0.031932    [1[6[8][1][1]]]                                             
  H           4.404855            -0.674548             7.564045            0             0.031932    [1[6[8][1][1]]]                                             
  C           4.619494            -5.669133             9.328870            1             0.099454    [6[8[1]][1][1][1]]                                          
  O           5.415506            -5.051413             8.453942            1            -0.597823    [8[6[1][1][1]][1]]                                          
  H           5.431894            -4.151331             8.758755            1             0.402573    [1[8[6]]]                                                   
  H           5.132494            -6.027316             10.281299           1             0.031932    [1[6[8][1][1]]]                                             
  H           3.793606            -5.067204             9.683257            1             0.031932    [1[6[8][1][1]]]                                             
  H           4.142823            -6.556134             8.824996            1             0.031932    [1[6[8][1][1]]]                                             
