12

  C           1.478229             4.723334             1.853045            0             0.099454    [6[8[1]][1][1][1]]                                          
  O           2.137860             3.740740             0.987973            0            -0.597823    [8[6[1][1][1]][1]]                                          
  H           1.603205             2.908610             1.102617            0             0.402573    [1[8[6]]]                                                   
  H           2.125817             5.126152             2.564378            0             0.031932    [1[6[8][1][1]]]                                             
  H           1.034596             5.532654             1.227298            0             0.031932    [1[6[8][1][1]]]                                             
  H           0.771103             4.272160             2.550989            0             0.031932    [1[6[8][1][1]]]                                             
  C           1.490614            -0.519304            -2.791803            1             0.099454    [6[8[1]][1][1][1]]                                          
  O           1.353212             0.173385            -1.530455            1            -0.597823    [8[6[1][1][1]][1]]                                          
  H           0.425567             0.117778            -1.271784            1             0.402573    [1[8[6]]]                                                   
  H           1.321812             0.217613            -3.633153            1             0.031932    [1[6[8][1][1]]]                                             
  H           2.521620            -0.902973            -2.950547            1             0.031932    [1[6[8][1][1]]]                                             
  H           0.834232            -1.369307            -2.838309            1             0.031932    [1[6[8][1][1]]]                                             
