12

  C           3.729332             11.109176           -10.482602           0             0.099454    [6[8[1]][1][1][1]]                                          
  O           4.755832             10.660201           -11.309026           0            -0.597823    [8[6[1][1][1]][1]]                                          
  H           4.517446             9.772490            -11.680235           0             0.402573    [1[8[6]]]                                                   
  H           2.665925             11.084278           -10.849776           0             0.031932    [1[6[8][1][1]]]                                             
  H           3.787291             10.735170           -9.479246            0             0.031932    [1[6[8][1][1]]]                                             
  H           3.875799             12.195148           -10.205744           0             0.031932    [1[6[8][1][1]]]                                             
  C           9.131496             8.642149            -10.889142           1             0.099454    [6[8[1]][1][1][1]]                                          
  O           8.416454             7.496642            -11.255507           1            -0.597823    [8[6[1][1][1]][1]]                                          
  H           7.910878             7.238208            -10.442181           1             0.402573    [1[8[6]]]                                                   
  H           8.768745             9.228676            -10.007910           1             0.031932    [1[6[8][1][1]]]                                             
  H           10.229135            8.312411            -10.763482           1             0.031932    [1[6[8][1][1]]]                                             
  H           9.056931             9.478766            -11.595643           1             0.031932    [1[6[8][1][1]]]                                             
