12

  C          -0.279772             8.880130            -5.984317            0             0.099454    [6[8[1]][1][1][1]]                                          
  O           0.783245             8.630714            -6.886738            0            -0.597823    [8[6[1][1][1]][1]]                                          
  H           0.274807             8.473379            -7.649880            0             0.402573    [1[8[6]]]                                                   
  H          -0.903684             9.718744            -6.263217            0             0.031932    [1[6[8][1][1]]]                                             
  H          -0.970593             8.024726            -5.917269            0             0.031932    [1[6[8][1][1]]]                                             
  H           0.085905             9.093486            -4.943612            0             0.031932    [1[6[8][1][1]]]                                             
  C           3.033606             5.650073            -5.770058            1             0.099454    [6[8[1]][1][1][1]]                                          
  O           2.795399             4.344122            -5.250891            1            -0.597823    [8[6[1][1][1]][1]]                                          
  H           1.932104             4.467012            -4.856824            1             0.402573    [1[8[6]]]                                                   
  H           2.852258             6.364832            -4.980401            1             0.031932    [1[6[8][1][1]]]                                             
  H           4.038197             5.794201            -6.047904            1             0.031932    [1[6[8][1][1]]]                                             
  H           2.378777             5.976326            -6.520583            1             0.031932    [1[6[8][1][1]]]                                             
