12

  C           7.210825             8.632815            -10.573525           0             0.099454    [6[8[1]][1][1][1]]                                          
  O           6.489195             9.621712            -11.265290           0            -0.597823    [8[6[1][1][1]][1]]                                          
  H           5.643977             9.593942            -10.878869           0             0.402573    [1[8[6]]]                                                   
  H           8.271137             8.672598            -10.791634           0             0.031932    [1[6[8][1][1]]]                                             
  H           7.248490             8.656114            -9.461360            0             0.031932    [1[6[8][1][1]]]                                             
  H           6.873795             7.608064            -10.845225           0             0.031932    [1[6[8][1][1]]]                                             
  C           4.825682             7.265460            -7.768343            1             0.099454    [6[8[1]][1][1][1]]                                          
  O           5.779126             6.637788            -8.583471            1            -0.597823    [8[6[1][1][1]][1]]                                          
  H           5.473405             5.795427            -8.867875            1             0.402573    [1[8[6]]]                                                   
  H           3.981013             6.698831            -7.377648            1             0.031932    [1[6[8][1][1]]]                                             
  H           5.229040             7.730813            -6.949969            1             0.031932    [1[6[8][1][1]]]                                             
  H           4.305574             7.995859            -8.454281            1             0.031932    [1[6[8][1][1]]]                                             
