12

  C          -10.731025            2.823541            -1.194444            0             0.099454    [6[8[1]][1][1][1]]                                          
  O          -10.503371            3.750135            -0.081358            0            -0.597823    [8[6[1][1][1]][1]]                                          
  H          -9.717192             3.611297             0.489731            0             0.402573    [1[8[6]]]                                                   
  H          -10.037854            3.038673            -2.059465            0             0.031932    [1[6[8][1][1]]]                                             
  H          -10.587128            1.762189            -0.946121            0             0.031932    [1[6[8][1][1]]]                                             
  H          -11.729911            2.863897            -1.670803            0             0.031932    [1[6[8][1][1]]]                                             
  C          -5.431064             3.410645            -1.481040            1             0.099454    [6[8[1]][1][1][1]]                                          
  O          -6.528782             2.810912            -0.803507            1            -0.597823    [8[6[1][1][1]][1]]                                          
  H          -6.199475             2.257877            -0.068820            1             0.402573    [1[8[6]]]                                                   
  H          -4.735965             3.634254            -0.724739            1             0.031932    [1[6[8][1][1]]]                                             
  H          -4.972894             2.724629            -2.260108            1             0.031932    [1[6[8][1][1]]]                                             
  H          -5.614087             4.338414            -1.991813            1             0.031932    [1[6[8][1][1]]]                                             
