12

  C          -8.719428            -0.806688             2.256153            0             0.099454    [6[8[1]][1][1][1]]                                          
  O          -10.041191           -1.234781             2.494380            0            -0.597823    [8[6[1][1][1]][1]]                                          
  H          -10.144787           -1.521010             3.361301            0             0.402573    [1[8[6]]]                                                   
  H          -8.220031            -0.383521             3.209562            0             0.031932    [1[6[8][1][1]]]                                             
  H          -8.128405            -1.587988             1.732554            0             0.031932    [1[6[8][1][1]]]                                             
  H          -8.726105             0.059084             1.528395            0             0.031932    [1[6[8][1][1]]]                                             
  C          -9.469355            -5.034915             5.023516            1             0.099454    [6[8[1]][1][1][1]]                                          
  O          -9.137636            -6.276195             4.482305            1            -0.597823    [8[6[1][1][1]][1]]                                          
  H          -8.185798            -6.198072             4.385905            1             0.402573    [1[8[6]]]                                                   
  H          -10.343936           -5.070091             5.588574            1             0.031932    [1[6[8][1][1]]]                                             
  H          -8.660249            -4.668172             5.713455            1             0.031932    [1[6[8][1][1]]]                                             
  H          -9.621374            -4.272023             4.221521            1             0.031932    [1[6[8][1][1]]]                                             
