12

  C          -9.545944            -1.925808            -2.997380            0             0.099454    [6[8[1]][1][1][1]]                                          
  O          -9.264013            -3.170088            -3.475293            0            -0.597823    [8[6[1][1][1]][1]]                                          
  H          -8.769437            -3.667740            -2.835042            0             0.402573    [1[8[6]]]                                                   
  H          -8.792932            -1.236500            -3.249073            0             0.031932    [1[6[8][1][1]]]                                             
  H          -10.372462           -1.460632            -3.328128            0             0.031932    [1[6[8][1][1]]]                                             
  H          -9.761016            -1.989993            -1.908970            0             0.031932    [1[6[8][1][1]]]                                             
  C          -3.808574            -2.865597            -3.912877            1             0.099454    [6[8[1]][1][1][1]]                                          
  O          -5.088948            -2.779502            -3.379765            1            -0.597823    [8[6[1][1][1]][1]]                                          
  H          -5.243762            -3.512747            -2.820870            1             0.402573    [1[8[6]]]                                                   
  H          -3.708712            -2.261601            -4.794589            1             0.031932    [1[6[8][1][1]]]                                             
  H          -2.979680            -2.555492            -3.204969            1             0.031932    [1[6[8][1][1]]]                                             
  H          -3.569196            -3.920728            -4.166138            1             0.031932    [1[6[8][1][1]]]                                             
