12

  C          -0.107336            -6.761295            -6.715591            0             0.099454    [6[8[1]][1][1][1]]                                          
  O          -0.840736            -7.925506            -6.762882            0            -0.597823    [8[6[1][1][1]][1]]                                          
  H          -0.625648            -8.537022            -6.098598            0             0.402573    [1[8[6]]]                                                   
  H           0.918834            -6.900276            -6.443235            0             0.031932    [1[6[8][1][1]]]                                             
  H          -0.136207            -6.196261            -7.628469            0             0.031932    [1[6[8][1][1]]]                                             
  H          -0.460480            -6.062073            -5.931819            0             0.031932    [1[6[8][1][1]]]                                             
  C           2.311494            -9.830904            -8.216563            1             0.099454    [6[8[1]][1][1][1]]                                          
  O           3.558891            -10.484770           -8.480704            1            -0.597823    [8[6[1][1][1]][1]]                                          
  H           3.941405            -10.762820           -7.664795            1             0.402573    [1[8[6]]]                                                   
  H           2.383091            -9.009173            -7.449427            1             0.031932    [1[6[8][1][1]]]                                             
  H           1.831679            -9.423599            -9.122781            1             0.031932    [1[6[8][1][1]]]                                             
  H           1.578314            -10.570983           -7.892508            1             0.031932    [1[6[8][1][1]]]                                             
