12

  C          -4.029221             8.344015             5.610913            0             0.099454    [6[8[1]][1][1][1]]                                          
  O          -2.999871             7.977746             4.667712            0            -0.597823    [8[6[1][1][1]][1]]                                          
  H          -3.310125             8.320182             3.789893            0             0.402573    [1[8[6]]]                                                   
  H          -3.622109             8.473960             6.626864            0             0.031932    [1[6[8][1][1]]]                                             
  H          -4.597087             9.250479             5.314208            0             0.031932    [1[6[8][1][1]]]                                             
  H          -4.851451             7.575020             5.727861            0             0.031932    [1[6[8][1][1]]]                                             
  C          -2.740408             10.748468            9.443473            1             0.099454    [6[8[1]][1][1][1]]                                          
  O          -2.519785             10.707064            10.825847           1            -0.597823    [8[6[1][1][1]][1]]                                          
  H          -3.362915             10.416062            11.085758           1             0.402573    [1[8[6]]]                                                   
  H          -3.324325             9.858892             9.129484            1             0.031932    [1[6[8][1][1]]]                                             
  H          -3.275789             11.631485            9.139751            1             0.031932    [1[6[8][1][1]]]                                             
  H          -1.777463             10.710860            8.890713            1             0.031932    [1[6[8][1][1]]]                                             
