12

  C          -6.030512             6.655904             1.816928            0             0.099454    [6[8[1]][1][1][1]]                                          
  O          -5.728468             6.776601             3.218112            0            -0.597823    [8[6[1][1][1]][1]]                                          
  H          -4.798940             6.874311             3.255842            0             0.402573    [1[8[6]]]                                                   
  H          -7.104650             6.813739             1.601745            0             0.031932    [1[6[8][1][1]]]                                             
  H          -5.444522             7.352368             1.185617            0             0.031932    [1[6[8][1][1]]]                                             
  H          -5.877691             5.637061             1.551672            0             0.031932    [1[6[8][1][1]]]                                             
  C          -6.157454             10.005180            5.000635            1             0.099454    [6[8[1]][1][1][1]]                                          
  O          -7.012671             9.226287             4.226335            1            -0.597823    [8[6[1][1][1]][1]]                                          
  H          -6.640607             8.534934             3.691516            1             0.402573    [1[8[6]]]                                                   
  H          -5.172978             10.178861            4.437589            1             0.031932    [1[6[8][1][1]]]                                             
  H          -6.692269             10.953788            5.047580            1             0.031932    [1[6[8][1][1]]]                                             
  H          -5.897147             9.620161             5.962352            1             0.031932    [1[6[8][1][1]]]                                             
