12

  C          -2.826672             3.168697             7.311766            0             0.099454    [6[8[1]][1][1][1]]                                          
  O          -2.985900             2.187477             8.339613            0            -0.597823    [8[6[1][1][1]][1]]                                          
  H          -2.080365             1.979500             8.637292            0             0.402573    [1[8[6]]]                                                   
  H          -2.631409             4.182728             7.755383            0             0.031932    [1[6[8][1][1]]]                                             
  H          -1.965593             2.904438             6.677685            0             0.031932    [1[6[8][1][1]]]                                             
  H          -3.653128             3.269334             6.564215            0             0.031932    [1[6[8][1][1]]]                                             
  C          -1.171793             5.934240             5.579448            1             0.099454    [6[8[1]][1][1][1]]                                          
  O          -0.309131             4.850648             5.364397            1            -0.597823    [8[6[1][1][1]][1]]                                          
  H          -0.566829             4.437277             4.482448            1             0.402573    [1[8[6]]]                                                   
  H          -1.154150             6.680770             4.732149            1             0.031932    [1[6[8][1][1]]]                                             
  H          -2.241465             5.558941             5.543396            1             0.031932    [1[6[8][1][1]]]                                             
  H          -0.988504             6.613440             6.458835            1             0.031932    [1[6[8][1][1]]]                                             
