12

  C          -8.995400            -9.326998            -3.486232            0             0.099454    [6[8[1]][1][1][1]]                                          
  O          -9.117094            -9.794694            -4.824261            0            -0.597823    [8[6[1][1][1]][1]]                                          
  H          -8.440360            -9.306386            -5.286878            0             0.402573    [1[8[6]]]                                                   
  H          -7.978663            -9.612132            -3.120251            0             0.031932    [1[6[8][1][1]]]                                             
  H          -9.192578            -8.287122            -3.341206            0             0.031932    [1[6[8][1][1]]]                                             
  H          -9.619070            -9.861640            -2.775363            0             0.031932    [1[6[8][1][1]]]                                             
  C          -11.431967           -10.318018           -4.044742            1             0.099454    [6[8[1]][1][1][1]]                                          
  O          -11.458756           -10.219499           -5.434309            1            -0.597823    [8[6[1][1][1]][1]]                                          
  H          -11.343012           -9.302613            -5.677670            1             0.402573    [1[8[6]]]                                                   
  H          -11.736917           -9.327433            -3.693890            1             0.031932    [1[6[8][1][1]]]                                             
  H          -12.108239           -11.082590           -3.664358            1             0.031932    [1[6[8][1][1]]]                                             
  H          -10.423469           -10.476616           -3.653457            1             0.031932    [1[6[8][1][1]]]                                             
