12

  C           7.712186            -6.551031             7.430713            0             0.099454    [6[8[1]][1][1][1]]                                          
  O           6.356131            -6.462621             7.029702            0            -0.597823    [8[6[1][1][1]][1]]                                          
  H           6.229425            -6.355896             6.039159            0             0.402573    [1[8[6]]]                                                   
  H           7.888485            -6.577326             8.505830            0             0.031932    [1[6[8][1][1]]]                                             
  H           8.158836            -7.446520             7.052474            0             0.031932    [1[6[8][1][1]]]                                             
  H           8.295175            -5.696844             7.093777            0             0.031932    [1[6[8][1][1]]]                                             
  C           5.586763            -5.731699             3.556566            1             0.099454    [6[8[1]][1][1][1]]                                          
  O           6.439240            -6.855940             3.875305            1            -0.597823    [8[6[1][1][1]][1]]                                          
  H           6.470313            -7.460647             3.132939            1             0.402573    [1[8[6]]]                                                   
  H           4.635582            -6.021316             3.065610            1             0.031932    [1[6[8][1][1]]]                                             
  H           5.302791            -4.989773             4.428867            1             0.031932    [1[6[8][1][1]]]                                             
  H           6.078548            -5.071582             2.862421            1             0.031932    [1[6[8][1][1]]]                                             
