12

  C          -2.473489             2.754382            -3.587635            0             0.099454    [6[8[1]][1][1][1]]                                          
  O          -2.443331             4.137999            -3.468418            0            -0.597823    [8[6[1][1][1]][1]]                                          
  H          -2.406738             4.647574            -4.288539            0             0.402573    [1[8[6]]]                                                   
  H          -1.822514             2.438176            -4.417710            0             0.031932    [1[6[8][1][1]]]                                             
  H          -2.095098             2.370439            -2.644488            0             0.031932    [1[6[8][1][1]]]                                             
  H          -3.458589             2.327411            -3.868728            0             0.031932    [1[6[8][1][1]]]                                             
  C          -1.370065             6.208887            -6.938442            1             0.099454    [6[8[1]][1][1][1]]                                          
  O          -2.392309             5.424116            -6.323053            1            -0.597823    [8[6[1][1][1]][1]]                                          
  H          -3.249040             5.754763            -6.675972            1             0.402573    [1[8[6]]]                                                   
  H          -0.452762             5.630749            -6.997572            1             0.031932    [1[6[8][1][1]]]                                             
  H          -1.648471             6.736577            -7.876351            1             0.031932    [1[6[8][1][1]]]                                             
  H          -1.043116             7.005122            -6.328241            1             0.031932    [1[6[8][1][1]]]                                             
