12

  C          -3.872528             2.001226             10.864595           0             0.099454    [6[8[1]][1][1][1]]                                          
  O          -3.736998             1.696973             9.499086            0            -0.597823    [8[6[1][1][1]][1]]                                          
  H          -3.554987             0.750151             9.587223            0             0.402573    [1[8[6]]]                                                   
  H          -4.390555             1.165372             11.388547           0             0.031932    [1[6[8][1][1]]]                                             
  H          -3.011502             2.207887             11.433390           0             0.031932    [1[6[8][1][1]]]                                             
  H          -4.542137             2.906519             11.106688           0             0.031932    [1[6[8][1][1]]]                                             
  C          -2.808617            -1.737059             8.696222            1             0.099454    [6[8[1]][1][1][1]]                                          
  O          -3.519960            -1.248605             9.838495            1            -0.597823    [8[6[1][1][1]][1]]                                          
  H          -3.025267            -1.574409             10.619669           1             0.402573    [1[8[6]]]                                                   
  H          -2.767888            -2.814282             8.543875            1             0.031932    [1[6[8][1][1]]]                                             
  H          -3.162831            -1.196957             7.815363            1             0.031932    [1[6[8][1][1]]]                                             
  H          -1.744119            -1.591351             8.727154            1             0.031932    [1[6[8][1][1]]]                                             
