12

  C           6.804729            -0.704950            -7.887372            0             0.099454    [6[8[1]][1][1][1]]                                          
  O           6.880612            -0.780466            -6.510407            0            -0.597823    [8[6[1][1][1]][1]]                                          
  H           5.998405            -0.399202            -6.234697            0             0.402573    [1[8[6]]]                                                   
  H           6.714294             0.342901            -8.198048            0             0.031932    [1[6[8][1][1]]]                                             
  H           7.732238            -1.110725            -8.347667            0             0.031932    [1[6[8][1][1]]]                                             
  H           5.955156            -1.278324            -8.377200            0             0.031932    [1[6[8][1][1]]]                                             
  C           3.170945             0.983623            -6.569867            1             0.099454    [6[8[1]][1][1][1]]                                          
  O           4.280881             0.472252            -5.817686            1            -0.597823    [8[6[1][1][1]][1]]                                          
  H           4.458388             1.056046            -5.107771            1             0.402573    [1[8[6]]]                                                   
  H           3.371466             2.121854            -6.607864            1             0.031932    [1[6[8][1][1]]]                                             
  H           3.348184             0.656798            -7.618752            1             0.031932    [1[6[8][1][1]]]                                             
  H           2.126035             0.707362            -6.156423            1             0.031932    [1[6[8][1][1]]]                                             
