12

  C           9.518140            -9.620616            -3.107383            0             0.099454    [6[8[1]][1][1][1]]                                          
  O           10.506839           -9.162423            -4.033828            0            -0.597823    [8[6[1][1][1]][1]]                                          
  H           10.192911           -8.597301            -4.716816            0             0.402573    [1[8[6]]]                                                   
  H           8.766802            -8.855435            -2.834577            0             0.031932    [1[6[8][1][1]]]                                             
  H           8.944407            -10.443229           -3.539903            0             0.031932    [1[6[8][1][1]]]                                             
  H           9.859461            -9.901562            -2.110812            0             0.031932    [1[6[8][1][1]]]                                             
  C           6.668036            -5.455190            -1.030907            1             0.099454    [6[8[1]][1][1][1]]                                          
  O           6.837075            -4.507155            -0.019168            1            -0.597823    [8[6[1][1][1]][1]]                                          
  H           7.422544            -4.843241             0.644759            1             0.402573    [1[8[6]]]                                                   
  H           7.637286            -5.706751            -1.547188            1             0.031932    [1[6[8][1][1]]]                                             
  H           6.155965            -6.319616            -0.667322            1             0.031932    [1[6[8][1][1]]]                                             
  H           6.026018            -5.035849            -1.862106            1             0.031932    [1[6[8][1][1]]]                                             
