12

  C           10.128577            0.098016            -7.714797            0             0.099454    [6[8[1]][1][1][1]]                                          
  O           10.258327            1.347297            -7.099161            0            -0.597823    [8[6[1][1][1]][1]]                                          
  H           9.527064             1.536801            -6.495390            0             0.402573    [1[8[6]]]                                                   
  H           10.339531           -0.673182            -6.936152            0             0.031932    [1[6[8][1][1]]]                                             
  H           9.078688             0.010444            -8.055894            0             0.031932    [1[6[8][1][1]]]                                             
  H           10.771831           -0.072254            -8.598922            0             0.031932    [1[6[8][1][1]]]                                             
  C           9.594464             4.031848            -3.485780            1             0.099454    [6[8[1]][1][1][1]]                                          
  O           9.433977             3.221107            -4.602122            1            -0.597823    [8[6[1][1][1]][1]]                                          
  H           8.485264             3.237819            -4.857603            1             0.402573    [1[8[6]]]                                                   
  H           10.137413            4.976285            -3.732843            1             0.031932    [1[6[8][1][1]]]                                             
  H           8.576874             4.279058            -3.077147            1             0.031932    [1[6[8][1][1]]]                                             
  H           10.282381            3.611429            -2.695346            1             0.031932    [1[6[8][1][1]]]                                             
