6

  C          -2.785418             1.376403            -7.307056            0             0.089063    [6[8[1]][1][1][1]]                                          
  O          -2.626977             2.536526            -8.077893            0            -0.604789    [8[6[1][1][1]][1]]                                          
  H          -3.532255             2.928424            -8.130873            0             0.406250    [1[8[6]]]                                                   
  H          -1.854902             0.985404            -7.017220            0             0.036492    [1[6[8][1][1]]]                                             
  H          -3.258974             1.646841            -6.356756            0             0.036492    [1[6[8][1][1]]]                                             
  H          -3.421532             0.673767            -7.828351            0             0.036492    [1[6[8][1][1]]]                                             
