12

  C           0.527698             1.859503             9.663229            0             0.099454    [6[8[1]][1][1][1]]                                          
  O           0.594535             0.604207             10.339565           0            -0.597823    [8[6[1][1][1]][1]]                                          
  H           1.417129             0.142972             9.950281            0             0.402573    [1[8[6]]]                                                   
  H           0.246686             1.908735             8.587147            0             0.031932    [1[6[8][1][1]]]                                             
  H          -0.322910             2.327679             10.124349           0             0.031932    [1[6[8][1][1]]]                                             
  H           1.373423             2.534069             9.816187            0             0.031932    [1[6[8][1][1]]]                                             
  C           4.196622            -0.011702             10.072559           1             0.099454    [6[8[1]][1][1][1]]                                          
  O           3.953575            -0.639063             8.796595            1            -0.597823    [8[6[1][1][1]][1]]                                          
  H           4.662885            -1.266409             8.818576            1             0.402573    [1[8[6]]]                                                   
  H           4.973549             0.804206             9.958830            1             0.031932    [1[6[8][1][1]]]                                             
  H           3.363525             0.470732             10.566065           1             0.031932    [1[6[8][1][1]]]                                             
  H           4.584626            -0.733397             10.864630           1             0.031932    [1[6[8][1][1]]]                                             
