12

  C           5.944907            -1.410275             8.821131            0             0.099454    [6[8[1]][1][1][1]]                                          
  O           5.661752            -2.034981             10.047827           0            -0.597823    [8[6[1][1][1]][1]]                                          
  H           6.407531            -2.616065             10.283087           0             0.402573    [1[8[6]]]                                                   
  H           5.131365            -0.914269             8.387196            0             0.031932    [1[6[8][1][1]]]                                             
  H           6.795903            -0.706590             8.955805            0             0.031932    [1[6[8][1][1]]]                                             
  H           6.311007            -2.132486             8.079920            0             0.031932    [1[6[8][1][1]]]                                             
  C           3.383848            -4.997898             8.775477            1             0.099454    [6[8[1]][1][1][1]]                                          
  O           4.321349            -5.344710             9.793845            1            -0.597823    [8[6[1][1][1]][1]]                                          
  H           5.010987            -4.761969             9.925138            1             0.402573    [1[8[6]]]                                                   
  H           3.874750            -4.633568             7.908581            1             0.031932    [1[6[8][1][1]]]                                             
  H           2.788686            -5.840481             8.401953            1             0.031932    [1[6[8][1][1]]]                                             
  H           2.727648            -4.186402             9.122463            1             0.031932    [1[6[8][1][1]]]                                             
