12

  C          -2.148013             2.129847             1.911966            0             0.099454    [6[8[1]][1][1][1]]                                          
  O          -0.703100             2.202816             2.039990            0            -0.597823    [8[6[1][1][1]][1]]                                          
  H          -0.327344             2.930984             1.522731            0             0.402573    [1[8[6]]]                                                   
  H          -2.414317             2.238284             0.914172            0             0.031932    [1[6[8][1][1]]]                                             
  H          -2.582117             1.155431             2.198879            0             0.031932    [1[6[8][1][1]]]                                             
  H          -2.594961             2.946416             2.554262            0             0.031932    [1[6[8][1][1]]]                                             
  C           1.565606             4.818952             4.063144            1             0.099454    [6[8[1]][1][1][1]]                                          
  O           0.685042             5.590373             4.790445            1            -0.597823    [8[6[1][1][1]][1]]                                          
  H           1.050737             6.522268             4.825861            1             0.402573    [1[8[6]]]                                                   
  H           1.151553             3.796714             3.883376            1             0.031932    [1[6[8][1][1]]]                                             
  H           1.753708             5.189912             3.077792            1             0.031932    [1[6[8][1][1]]]                                             
  H           2.481122             4.505478             4.613110            1             0.031932    [1[6[8][1][1]]]                                             
