12

  C          -2.181181            -5.409228            -7.542466            0             0.099454    [6[8[1]][1][1][1]]                                          
  O          -1.017971            -6.040588            -7.956332            0            -0.597823    [8[6[1][1][1]][1]]                                          
  H          -0.773341            -5.627400            -8.783490            0             0.402573    [1[8[6]]]                                                   
  H          -2.728610            -5.955657            -6.771430            0             0.031932    [1[6[8][1][1]]]                                             
  H          -1.854823            -4.456523            -7.048018            0             0.031932    [1[6[8][1][1]]]                                             
  H          -2.890129            -5.217348            -8.402105            0             0.031932    [1[6[8][1][1]]]                                             
  C           0.518958            -7.221498            -10.914147           1             0.099454    [6[8[1]][1][1][1]]                                          
  O          -0.595599            -6.350672            -10.940867           1            -0.597823    [8[6[1][1][1]][1]]                                          
  H          -1.305709            -6.857466            -11.376810           1             0.402573    [1[8[6]]]                                                   
  H           0.771555            -7.536177            -9.928097            1             0.031932    [1[6[8][1][1]]]                                             
  H           0.492879            -8.197165            -11.491683           1             0.031932    [1[6[8][1][1]]]                                             
  H           1.257595            -6.624685            -11.503031           1             0.031932    [1[6[8][1][1]]]                                             
