12

  C          -9.513063            -5.508502            -5.545523            0             0.099454    [6[8[1]][1][1][1]]                                          
  O          -8.300979            -4.766045            -5.565556            0            -0.597823    [8[6[1][1][1]][1]]                                          
  H          -8.323030            -4.099855            -4.848389            0             0.402573    [1[8[6]]]                                                   
  H          -9.644710            -6.145796            -4.637495            0             0.031932    [1[6[8][1][1]]]                                             
  H          -10.425051           -4.859244            -5.619301            0             0.031932    [1[6[8][1][1]]]                                             
  H          -9.530711            -6.180025            -6.435499            0             0.031932    [1[6[8][1][1]]]                                             
  C          -5.779180            -3.428768            -7.105090            1             0.099454    [6[8[1]][1][1][1]]                                          
  O          -6.965934            -3.671722            -7.741450            1            -0.597823    [8[6[1][1][1]][1]]                                          
  H          -7.515566            -4.048091            -7.069416            1             0.402573    [1[8[6]]]                                                   
  H          -5.275618            -4.387856            -6.873689            1             0.031932    [1[6[8][1][1]]]                                             
  H          -5.084575            -2.798522            -7.654741            1             0.031932    [1[6[8][1][1]]]                                             
  H          -5.954719            -2.892347            -6.155258            1             0.031932    [1[6[8][1][1]]]                                             
