12

  C          -4.571858            -8.509217             7.080362            0             0.099454    [6[8[1]][1][1][1]]                                          
  O          -3.583468            -7.449682             7.394431            0            -0.597823    [8[6[1][1][1]][1]]                                          
  H          -3.572475            -6.902586             6.640899            0             0.402573    [1[8[6]]]                                                   
  H          -4.180799            -9.176255             6.298429            0             0.031932    [1[6[8][1][1]]]                                             
  H          -4.673121            -9.129860             7.950470            0             0.031932    [1[6[8][1][1]]]                                             
  H          -5.476760            -8.065264             6.898514            0             0.031932    [1[6[8][1][1]]]                                             
  C          -8.011818            -10.170365            6.811941            1             0.099454    [6[8[1]][1][1][1]]                                          
  O          -9.283217            -10.729772            6.767037            1            -0.597823    [8[6[1][1][1]][1]]                                          
  H          -9.970789            -10.188173            6.350972            1             0.402573    [1[8[6]]]                                                   
  H          -7.501096            -9.856722             5.909643            1             0.031932    [1[6[8][1][1]]]                                             
  H          -8.006873            -9.270922             7.495222            1             0.031932    [1[6[8][1][1]]]                                             
  H          -7.189989            -10.724177            7.235973            1             0.031932    [1[6[8][1][1]]]                                             
