12

  C           7.674039             0.035445             7.558897            0             0.099454    [6[8[1]][1][1][1]]                                          
  O           8.497836            -1.111017             7.348845            0            -0.597823    [8[6[1][1][1]][1]]                                          
  H           8.080656            -1.808521             6.818184            0             0.402573    [1[8[6]]]                                                   
  H           7.815197             0.376542             8.597976            0             0.031932    [1[6[8][1][1]]]                                             
  H           7.876174             0.780799             6.758844            0             0.031932    [1[6[8][1][1]]]                                             
  H           6.562464            -0.208771             7.573850            0             0.031932    [1[6[8][1][1]]]                                             
  C           8.688637            -2.375975             10.960818           1             0.099454    [6[8[1]][1][1][1]]                                          
  O           7.454048            -2.255057             10.299819           1            -0.597823    [8[6[1][1][1]][1]]                                          
  H           7.658497            -2.290132             9.340659            1             0.402573    [1[8[6]]]                                                   
  H           8.886621            -3.384822             11.307108           1             0.031932    [1[6[8][1][1]]]                                             
  H           9.483844            -2.092720             10.345854           1             0.031932    [1[6[8][1][1]]]                                             
  H           8.576336            -1.714098             11.815789           1             0.031932    [1[6[8][1][1]]]                                             
