12

  C           7.892758             10.821007           -2.226867            0             0.099454    [6[8[1]][1][1][1]]                                          
  O           8.272880             9.742820            -1.404930            0            -0.597823    [8[6[1][1][1]][1]]                                          
  H           8.541633             10.062633           -0.501364            0             0.402573    [1[8[6]]]                                                   
  H           7.192416             10.442952           -2.924750            0             0.031932    [1[6[8][1][1]]]                                             
  H           7.429778             11.576646           -1.600123            0             0.031932    [1[6[8][1][1]]]                                             
  H           8.748379             11.363983           -2.592521            0             0.031932    [1[6[8][1][1]]]                                             
  C           5.477825             10.222591            2.055904            1             0.099454    [6[8[1]][1][1][1]]                                          
  O           6.314687             9.784553             0.931115            1            -0.597823    [8[6[1][1][1]][1]]                                          
  H           6.687954             8.989488             1.259072            1             0.402573    [1[8[6]]]                                                   
  H           5.959780             10.902845            2.777499            1             0.031932    [1[6[8][1][1]]]                                             
  H           4.533393             10.671920            1.844271            1             0.031932    [1[6[8][1][1]]]                                             
  H           5.174428             9.336066             2.686822            1             0.031932    [1[6[8][1][1]]]                                             
