12

  C           10.616693           -9.024926             10.683201           0             0.099454    [6[8[1]][1][1][1]]                                          
  O           11.451603           -9.000873             9.598607            0            -0.597823    [8[6[1][1][1]][1]]                                          
  H           11.082871           -8.509996             8.856676            0             0.402573    [1[8[6]]]                                                   
  H           10.334665           -8.011721             10.998511           0             0.031932    [1[6[8][1][1]]]                                             
  H           9.613762            -9.467536             10.460529           0             0.031932    [1[6[8][1][1]]]                                             
  H           11.098516           -9.497788             11.598811           0             0.031932    [1[6[8][1][1]]]                                             
  C           10.352026           -5.935327             9.632944            1             0.099454    [6[8[1]][1][1][1]]                                          
  O           10.792105           -5.202303             8.473814            1            -0.597823    [8[6[1][1][1]][1]]                                          
  H           10.497764           -4.299344             8.530602            1             0.402573    [1[8[6]]]                                                   
  H           9.256438            -5.809035             9.783985            1             0.031932    [1[6[8][1][1]]]                                             
  H           10.656892           -6.945172             9.567578            1             0.031932    [1[6[8][1][1]]]                                             
  H           10.798841           -5.568398             10.508787           1             0.031932    [1[6[8][1][1]]]                                             
