12

  C          -9.948473            -1.812941             5.438624            0             0.099454    [6[8[1]][1][1][1]]                                          
  O          -9.656483            -1.904055             6.869065            0            -0.597823    [8[6[1][1][1]][1]]                                          
  H          -8.898172            -2.436655             7.042660            0             0.402573    [1[8[6]]]                                                   
  H          -10.795136           -1.169837             5.194730            0             0.031932    [1[6[8][1][1]]]                                             
  H          -9.039130            -1.454169             4.871001            0             0.031932    [1[6[8][1][1]]]                                             
  H          -10.203844           -2.769139             4.921275            0             0.031932    [1[6[8][1][1]]]                                             
  C          -6.937713             2.373086             6.655401            1             0.099454    [6[8[1]][1][1][1]]                                          
  O          -5.794244             1.905989             5.977256            1            -0.597823    [8[6[1][1][1]][1]]                                          
  H          -5.128187             2.605545             6.038818            1             0.402573    [1[8[6]]]                                                   
  H          -6.876055             2.211186             7.722361            1             0.031932    [1[6[8][1][1]]]                                             
  H          -7.201990             3.407024             6.351372            1             0.031932    [1[6[8][1][1]]]                                             
  H          -7.791973             1.711379             6.400325            1             0.031932    [1[6[8][1][1]]]                                             
