12

  C          -4.944868            -6.379908            -6.736573            0             0.099454    [6[8[1]][1][1][1]]                                          
  O          -6.142319            -5.643729            -6.610150            0            -0.597823    [8[6[1][1][1]][1]]                                          
  H          -6.328640            -5.442620            -7.501184            0             0.402573    [1[8[6]]]                                                   
  H          -4.130525            -5.985907            -6.044649            0             0.031932    [1[6[8][1][1]]]                                             
  H          -5.172011            -7.357734            -6.328079            0             0.031932    [1[6[8][1][1]]]                                             
  H          -4.478197            -6.584611            -7.685240            0             0.031932    [1[6[8][1][1]]]                                             
  C          -2.793664            -8.134331            -3.088028            1             0.099454    [6[8[1]][1][1][1]]                                          
  O          -3.895256            -7.291389            -3.248590            1            -0.597823    [8[6[1][1][1]][1]]                                          
  H          -4.031382            -6.886609            -2.384556            1             0.402573    [1[8[6]]]                                                   
  H          -2.518803            -8.453922            -4.049778            1             0.031932    [1[6[8][1][1]]]                                             
  H          -2.005301            -7.562429            -2.620502            1             0.031932    [1[6[8][1][1]]]                                             
  H          -2.992806            -9.027853            -2.518333            1             0.031932    [1[6[8][1][1]]]                                             
