12

  C           7.403587            -9.978403             2.850823            0             0.099454    [6[8[1]][1][1][1]]                                          
  O           8.436868            -10.175592            3.819464            0            -0.597823    [8[6[1][1][1]][1]]                                          
  H           8.901432            -9.344453             3.760023            0             0.402573    [1[8[6]]]                                                   
  H           6.659822            -10.796634            2.741819            0             0.031932    [1[6[8][1][1]]]                                             
  H           6.753976            -9.111193             3.112570            0             0.031932    [1[6[8][1][1]]]                                             
  H           7.782467            -9.757799             1.881767            0             0.031932    [1[6[8][1][1]]]                                             
  C           10.095339           -6.976327             2.711084            1             0.099454    [6[8[1]][1][1][1]]                                          
  O           9.354405            -7.273151             3.862007            1            -0.597823    [8[6[1][1][1]][1]]                                          
  H           8.642711            -6.642811             3.864555            1             0.402573    [1[8[6]]]                                                   
  H           10.181727           -5.865649             2.594806            1             0.031932    [1[6[8][1][1]]]                                             
  H           10.976786           -7.593750             2.756952            1             0.031932    [1[6[8][1][1]]]                                             
  H           9.627140            -7.433392             1.869165            1             0.031932    [1[6[8][1][1]]]                                             
