12

  C           5.651281            -6.607152            -7.131808            0             0.099454    [6[8[1]][1][1][1]]                                          
  O           4.421029            -6.172387            -6.635053            0            -0.597823    [8[6[1][1][1]][1]]                                          
  H           3.846128            -6.941923            -6.443546            0             0.402573    [1[8[6]]]                                                   
  H           6.331579            -5.736460            -7.229165            0             0.031932    [1[6[8][1][1]]]                                             
  H           6.041744            -7.382705            -6.519006            0             0.031932    [1[6[8][1][1]]]                                             
  H           5.543523            -7.079936            -8.062609            0             0.031932    [1[6[8][1][1]]]                                             
  C           3.326192            -9.299605            -6.732269            1             0.099454    [6[8[1]][1][1][1]]                                          
  O           2.496551            -10.299359           -6.136485            1            -0.597823    [8[6[1][1][1]][1]]                                          
  H           2.910461            -11.128581           -6.198545            1             0.402573    [1[8[6]]]                                                   
  H           4.306500            -9.333767            -6.405769            1             0.031932    [1[6[8][1][1]]]                                             
  H           3.357576            -9.239956            -7.782154            1             0.031932    [1[6[8][1][1]]]                                             
  H           2.920696            -8.347242            -6.337458            1             0.031932    [1[6[8][1][1]]]                                             
