12

  C          -2.561850             8.333009             5.793317            0             0.099454    [6[8[1]][1][1][1]]                                          
  O          -3.098374             7.684261             4.668960            0            -0.597823    [8[6[1][1][1]][1]]                                          
  H          -2.260752             7.229011             4.369283            0             0.402573    [1[8[6]]]                                                   
  H          -1.504505             8.534680             5.701477            0             0.031932    [1[6[8][1][1]]]                                             
  H          -3.050513             9.317847             5.958538            0             0.031932    [1[6[8][1][1]]]                                             
  H          -2.651462             7.682936             6.685952            0             0.031932    [1[6[8][1][1]]]                                             
  C           0.335127             6.368528             7.383852            1             0.099454    [6[8[1]][1][1][1]]                                          
  O           0.494388             7.192351             6.270742            1            -0.597823    [8[6[1][1][1]][1]]                                          
  H           0.338019             6.570554             5.491384            1             0.402573    [1[8[6]]]                                                   
  H          -0.092078             6.845019             8.282586            1             0.031932    [1[6[8][1][1]]]                                             
  H          -0.326130             5.576746             7.050708            1             0.031932    [1[6[8][1][1]]]                                             
  H           1.301061             6.010898             7.747708            1             0.031932    [1[6[8][1][1]]]                                             
