6

C  1.06891000           0.04899000          -0.07685000         
O  2.46704000           0.06486000          -0.06673000         
H  0.69666000           0.65782000           0.77261000         
H  0.69376000          -0.98968000           0.05002000         
H  0.68472000           0.49620000          -1.01921000         
H  2.75191000          -0.49099000          -0.83784000         
