12

  C           3.963104            -1.894302            -6.831238            0             0.099454    [6[8[1]][1][1][1]]                                          
  O           4.841024            -1.628224            -5.724773            0            -0.597823    [8[6[1][1][1]][1]]                                          
  H           5.315042            -2.462843            -5.462940            0             0.402573    [1[8[6]]]                                                   
  H           3.675892            -0.939994            -7.360445            0             0.031932    [1[6[8][1][1]]]                                             
  H           4.399781            -2.566132            -7.606293            0             0.031932    [1[6[8][1][1]]]                                             
  H           3.045565            -2.437522            -6.505905            0             0.031932    [1[6[8][1][1]]]                                             
  C           3.035354            -3.809666            -2.544556            1             0.099454    [6[8[1]][1][1][1]]                                          
  O           1.766696            -4.109608            -3.176374            1            -0.597823    [8[6[1][1][1]][1]]                                          
  H           1.607045            -3.612000            -3.997328            1             0.402573    [1[8[6]]]                                                   
  H           3.106638            -4.114295            -1.499011            1             0.031932    [1[6[8][1][1]]]                                             
  H           3.808947            -4.262466            -3.092819            1             0.031932    [1[6[8][1][1]]]                                             
  H           3.163127            -2.658329            -2.601287            1             0.031932    [1[6[8][1][1]]]                                             
