12

  C           1.278964            -10.654822            2.337766            0             0.099454    [6[8[1]][1][1][1]]                                          
  O           1.975469            -10.763566            3.561013            0            -0.597823    [8[6[1][1][1]][1]]                                          
  H           2.763265            -11.256909            3.348373            0             0.402573    [1[8[6]]]                                                   
  H           0.900062            -11.560758            2.008515            0             0.031932    [1[6[8][1][1]]]                                             
  H           0.551293            -9.905268             2.334664            0             0.031932    [1[6[8][1][1]]]                                             
  H           2.032881            -10.389157            1.510708            0             0.031932    [1[6[8][1][1]]]                                             
  C          -2.609944            -10.256351            5.190139            1             0.099454    [6[8[1]][1][1][1]]                                          
  O          -3.201043            -9.012734             5.520991            1            -0.597823    [8[6[1][1][1]][1]]                                          
  H          -2.466992            -8.398140             5.750252            1             0.402573    [1[8[6]]]                                                   
  H          -1.706932            -10.289172            4.551966            1             0.031932    [1[6[8][1][1]]]                                             
  H          -2.154489            -10.747603            6.055708            1             0.031932    [1[6[8][1][1]]]                                             
  H          -3.321571            -10.948239            4.723527            1             0.031932    [1[6[8][1][1]]]                                             
