10

C  0.92988000           0.04893000          -0.06218000         
C  2.42687000           0.08318000          -0.03045000         
C  3.13538000           1.05123000           0.86625000         
O  3.07019000          -0.67869000          -0.73618000         
H  0.56906000          -0.72194000          -0.77623000         
H  0.54093000           1.03943000          -0.37814000         
H  0.54094000          -0.19043000           0.94958000         
H  4.23688000           0.94493000           0.76777000         
H  2.85024000           0.85904000           1.92170000         
H  2.85023000           2.08891000           0.59398000         
