6

  C           3.540197            -6.342750            -10.430402           0             0.089063    [6[8[1]][1][1][1]]                                          
  O           4.462776            -5.840784            -11.379339           0            -0.604789    [8[6[1][1][1]][1]]                                          
  H           5.128077            -5.287987            -11.018687           0             0.406250    [1[8[6]]]                                                   
  H           3.056872            -7.295456            -10.783025           0             0.036492    [1[6[8][1][1]]]                                             
  H           3.944501            -6.473952            -9.436705            0             0.036492    [1[6[8][1][1]]]                                             
  H           2.747391            -5.537854            -10.306292           0             0.036492    [1[6[8][1][1]]]                                             
