12

  C          -2.236262            -7.219065            -3.038028            0             0.099454    [6[8[1]][1][1][1]]                                          
  O          -2.089203            -8.488530            -3.702297            0            -0.597823    [8[6[1][1][1]][1]]                                          
  H          -2.620605            -8.479153            -4.503310            0             0.402573    [1[8[6]]]                                                   
  H          -1.906942            -6.405743            -3.624474            0             0.031932    [1[6[8][1][1]]]                                             
  H          -3.225869            -6.961767            -2.730361            0             0.031932    [1[6[8][1][1]]]                                             
  H          -1.644495            -7.133655            -2.155844            0             0.031932    [1[6[8][1][1]]]                                             
  C          -2.831504            -7.759823            -7.278792            1             0.099454    [6[8[1]][1][1][1]]                                          
  O          -1.512623            -8.337088            -7.344358            1            -0.597823    [8[6[1][1][1]][1]]                                          
  H          -1.351188            -8.770977            -8.192856            1             0.402573    [1[8[6]]]                                                   
  H          -3.681112            -8.443216            -6.889418            1             0.031932    [1[6[8][1][1]]]                                             
  H          -2.832331            -6.876342            -6.649877            1             0.031932    [1[6[8][1][1]]]                                             
  H          -3.162068            -7.395431            -8.223280            1             0.031932    [1[6[8][1][1]]]                                             
