12

  C           1.095944             8.166273             0.776603            0             0.099454    [6[8[1]][1][1][1]]                                          
  O           0.517582             8.047650            -0.461068            0            -0.597823    [8[6[1][1][1]][1]]                                          
  H           0.706959             8.852177            -0.975110            0             0.402573    [1[8[6]]]                                                   
  H           0.550971             9.003790             1.328476            0             0.031932    [1[6[8][1][1]]]                                             
  H           1.245504             7.247085             1.380575            0             0.031932    [1[6[8][1][1]]]                                             
  H           2.087410             8.582038             0.714807            0             0.031932    [1[6[8][1][1]]]                                             
  C          -1.574959             5.552687             0.052939            1             0.099454    [6[8[1]][1][1][1]]                                          
  O          -0.213049             5.315815            -0.311016            1            -0.597823    [8[6[1][1][1]][1]]                                          
  H           0.156390             6.059538            -0.790680            1             0.402573    [1[8[6]]]                                                   
  H          -2.149226             5.731861            -0.873116            1             0.031932    [1[6[8][1][1]]]                                             
  H          -1.975648             4.632163             0.646193            1             0.031932    [1[6[8][1][1]]]                                             
  H          -1.674990             6.385533             0.750422            1             0.031932    [1[6[8][1][1]]]                                             
