12

  C           7.027536             3.700445             1.588677            0             0.099454    [6[8[1]][1][1][1]]                                          
  O           7.121738             4.093266             0.247516            0            -0.597823    [8[6[1][1][1]][1]]                                          
  H           7.366341             3.333908            -0.299382            0             0.402573    [1[8[6]]]                                                   
  H           8.023769             3.471064             2.076743            0             0.031932    [1[6[8][1][1]]]                                             
  H           6.544191             4.464693             2.197487            0             0.031932    [1[6[8][1][1]]]                                             
  H           6.420623             2.848499             1.708700            0             0.031932    [1[6[8][1][1]]]                                             
  C           8.333353             5.513837             5.380126            1             0.099454    [6[8[1]][1][1][1]]                                          
  O           9.205957             5.227535             6.419786            1            -0.597823    [8[6[1][1][1]][1]]                                          
  H           8.747401             5.686495             7.167722            1             0.402573    [1[8[6]]]                                                   
  H           7.288762             5.499684             5.703675            1             0.031932    [1[6[8][1][1]]]                                             
  H           8.573081             6.488046             4.882362            1             0.031932    [1[6[8][1][1]]]                                             
  H           8.373617             4.670108             4.635545            1             0.031932    [1[6[8][1][1]]]                                             
