12

  C           8.975860             6.983749             0.416720            0             0.099454    [6[8[1]][1][1][1]]                                          
  O           8.086384             7.854023            -0.264035            0            -0.597823    [8[6[1][1][1]][1]]                                          
  H           8.109435             8.661414             0.109359            0             0.402573    [1[8[6]]]                                                   
  H           8.587323             5.946020             0.290470            0             0.031932    [1[6[8][1][1]]]                                             
  H           9.905775             7.007106            -0.095493            0             0.031932    [1[6[8][1][1]]]                                             
  H           9.124228             7.255210             1.408441            0             0.031932    [1[6[8][1][1]]]                                             
  C           10.848118            7.824750            -2.470334            1             0.099454    [6[8[1]][1][1][1]]                                          
  O           11.993097            7.155389            -2.165314            1            -0.597823    [8[6[1][1][1]][1]]                                          
  H           12.550077            7.808222            -1.733062            1             0.402573    [1[8[6]]]                                                   
  H           10.196917            7.106182            -3.000592            1             0.031932    [1[6[8][1][1]]]                                             
  H           10.322060            8.301167            -1.664126            1             0.031932    [1[6[8][1][1]]]                                             
  H           11.091193            8.539928            -3.250908            1             0.031932    [1[6[8][1][1]]]                                             
