12

  C          -2.473489             2.754382            -3.587635            0             0.099454    [6[8[1]][1][1][1]]                                          
  O          -2.443331             4.137999            -3.468418            0            -0.597823    [8[6[1][1][1]][1]]                                          
  H          -2.406738             4.647574            -4.288539            0             0.402573    [1[8[6]]]                                                   
  H          -1.822514             2.438176            -4.417710            0             0.031932    [1[6[8][1][1]]]                                             
  H          -2.095098             2.370439            -2.644488            0             0.031932    [1[6[8][1][1]]]                                             
  H          -3.458589             2.327411            -3.868728            0             0.031932    [1[6[8][1][1]]]                                             
  C          -5.438823             2.939611             0.653369            1             0.099454    [6[8[1]][1][1][1]]                                          
  O          -5.878226             2.898767             2.003602            1            -0.597823    [8[6[1][1][1]][1]]                                          
  H          -6.781193             3.161789             1.905700            1             0.402573    [1[8[6]]]                                                   
  H          -4.325486             2.925350             0.716673            1             0.031932    [1[6[8][1][1]]]                                             
  H          -5.760783             2.003888             0.186387            1             0.031932    [1[6[8][1][1]]]                                             
  H          -5.762836             3.829153             0.087394            1             0.031932    [1[6[8][1][1]]]                                             
