12

  C          -7.659629            -4.472034             5.252038            0             0.099454    [6[8[1]][1][1][1]]                                          
  O          -8.518829            -4.748822             4.136675            0            -0.597823    [8[6[1][1][1]][1]]                                          
  H          -9.275437            -4.126430             4.062496            0             0.402573    [1[8[6]]]                                                   
  H          -6.893624            -5.275388             5.267629            0             0.031932    [1[6[8][1][1]]]                                             
  H          -7.228614            -3.404280             5.310936            0             0.031932    [1[6[8][1][1]]]                                             
  H          -8.259196            -4.497080             6.162074            0             0.031932    [1[6[8][1][1]]]                                             
  C          -10.018946           -1.408965             1.870387            1             0.099454    [6[8[1]][1][1][1]]                                          
  O          -10.337469           -2.526738             1.054281            1            -0.597823    [8[6[1][1][1]][1]]                                          
  H          -9.774385            -3.257972             1.378657            1             0.402573    [1[8[6]]]                                                   
  H          -10.655951           -1.147242             2.725710            1             0.031932    [1[6[8][1][1]]]                                             
  H          -9.059208            -1.586892             2.320353            1             0.031932    [1[6[8][1][1]]]                                             
  H          -9.913778            -0.568793             1.239925            1             0.031932    [1[6[8][1][1]]]                                             
