12

  C          -9.575890            -1.714717            -9.971939            0             0.099454    [6[8[1]][1][1][1]]                                          
  O          -8.783560            -1.945917            -8.854113            0            -0.597823    [8[6[1][1][1]][1]]                                          
  H          -9.272801            -2.521201            -8.251607            0             0.402573    [1[8[6]]]                                                   
  H          -10.653452           -1.483657            -9.666511            0             0.031932    [1[6[8][1][1]]]                                             
  H          -9.032290            -0.866566            -10.589355           0             0.031932    [1[6[8][1][1]]]                                             
  H          -9.703653            -2.581191            -10.584015           0             0.031932    [1[6[8][1][1]]]                                             
  C          -7.995814            -5.051933            -4.817911            1             0.099454    [6[8[1]][1][1][1]]                                          
  O          -7.723852            -4.250924            -5.990596            1            -0.597823    [8[6[1][1][1]][1]]                                          
  H          -8.414649            -4.447234            -6.684863            1             0.402573    [1[8[6]]]                                                   
  H          -8.909583            -4.828857            -4.251161            1             0.031932    [1[6[8][1][1]]]                                             
  H          -8.165103            -6.058626            -5.253838            1             0.031932    [1[6[8][1][1]]]                                             
  H          -7.193328            -5.017063            -4.080825            1             0.031932    [1[6[8][1][1]]]                                             
