12

  C          -5.021241            -8.045832             2.494545            0             0.099454    [6[8[1]][1][1][1]]                                          
  O          -5.989247            -7.308026             3.203133            0            -0.597823    [8[6[1][1][1]][1]]                                          
  H          -6.772489            -7.218520             2.640288            0             0.402573    [1[8[6]]]                                                   
  H          -4.100609            -8.060883             3.101031            0             0.031932    [1[6[8][1][1]]]                                             
  H          -5.262900            -9.056602             2.291049            0             0.031932    [1[6[8][1][1]]]                                             
  H          -4.833772            -7.685138             1.454732            0             0.031932    [1[6[8][1][1]]]                                             
  C          -8.114846            -11.179982            0.534309            1             0.099454    [6[8[1]][1][1][1]]                                          
  O          -9.394486            -11.253545            1.116685            1            -0.597823    [8[6[1][1][1]][1]]                                          
  H          -9.334879            -11.332560            2.071275            1             0.402573    [1[8[6]]]                                                   
  H          -8.110388            -11.445938           -0.491419            1             0.031932    [1[6[8][1][1]]]                                             
  H          -7.684400            -10.157834            0.545930            1             0.031932    [1[6[8][1][1]]]                                             
  H          -7.398185            -11.935894            0.937221            1             0.031932    [1[6[8][1][1]]]                                             
