12

  C          -7.546642             5.310844            -2.485952            0             0.099454    [6[8[1]][1][1][1]]                                          
  O          -6.537382             4.702897            -1.704250            0            -0.597823    [8[6[1][1][1]][1]]                                          
  H          -6.634103             3.799627            -2.072274            0             0.402573    [1[8[6]]]                                                   
  H          -7.343214             5.297082            -3.570693            0             0.031932    [1[6[8][1][1]]]                                             
  H          -8.497672             4.889586            -2.433377            0             0.031932    [1[6[8][1][1]]]                                             
  H          -7.670592             6.410111            -2.234567            0             0.031932    [1[6[8][1][1]]]                                             
  C          -5.673843             9.678529             0.887699            1             0.099454    [6[8[1]][1][1][1]]                                          
  O          -5.079798             8.484025             1.211510            1            -0.597823    [8[6[1][1][1]][1]]                                          
  H          -4.231268             8.659638             1.607767            1             0.402573    [1[8[6]]]                                                   
  H          -5.775124             10.359576            1.647475            1             0.031932    [1[6[8][1][1]]]                                             
  H          -5.041630             10.146954            0.099919            1             0.031932    [1[6[8][1][1]]]                                             
  H          -6.710823             9.493351             0.457744            1             0.031932    [1[6[8][1][1]]]                                             
