12

  C          -5.982742            -6.095501             1.316982            0             0.099454    [6[8[1]][1][1][1]]                                          
  O          -6.760569            -4.916011             1.577320            0            -0.597823    [8[6[1][1][1]][1]]                                          
  H          -6.135223            -4.206989             1.780978            0             0.402573    [1[8[6]]]                                                   
  H          -5.438071            -6.346295             2.215708            0             0.031932    [1[6[8][1][1]]]                                             
  H          -6.528076            -6.986041             1.068226            0             0.031932    [1[6[8][1][1]]]                                             
  H          -5.230619            -5.928635             0.561390            0             0.031932    [1[6[8][1][1]]]                                             
  C          -5.665758            -4.689822            -2.360224            1             0.099454    [6[8[1]][1][1][1]]                                          
  O          -6.884275            -4.148201            -2.717216            1            -0.597823    [8[6[1][1][1]][1]]                                          
  H          -7.629676            -4.652212            -2.280680            1             0.402573    [1[8[6]]]                                                   
  H          -4.944511            -4.627288            -3.154112            1             0.031932    [1[6[8][1][1]]]                                             
  H          -5.203577            -4.051282            -1.505271            1             0.031932    [1[6[8][1][1]]]                                             
  H          -5.827950            -5.648376            -1.913046            1             0.031932    [1[6[8][1][1]]]                                             
