12

  C          -3.485730            -1.394707            -9.730617            0             0.099454    [6[8[1]][1][1][1]]                                          
  O          -2.209008            -1.200329            -10.263792           0            -0.597823    [8[6[1][1][1]][1]]                                          
  H          -1.614533            -1.875366            -9.926658            0             0.402573    [1[8[6]]]                                                   
  H          -4.240539            -0.844386            -10.235814           0             0.031932    [1[6[8][1][1]]]                                             
  H          -3.804167            -2.419185            -9.794614            0             0.031932    [1[6[8][1][1]]]                                             
  H          -3.535408            -1.094552            -8.687688            0             0.031932    [1[6[8][1][1]]]                                             
  C          -5.228021            -5.201579            -7.289716            1             0.099454    [6[8[1]][1][1][1]]                                          
  O          -5.730064            -6.451486            -7.748698            1            -0.597823    [8[6[1][1][1]][1]]                                          
  H          -5.272211            -6.676350            -8.575378            1             0.402573    [1[8[6]]]                                                   
  H          -4.370147            -5.383258            -6.565154            1             0.031932    [1[6[8][1][1]]]                                             
  H          -4.907543            -4.739476            -8.134472            1             0.031932    [1[6[8][1][1]]]                                             
  H          -5.945658            -4.573453            -6.762848            1             0.031932    [1[6[8][1][1]]]                                             
